6
s                      x[A]                      y[A]                      z[A]                      q[e]
N        0.0010033789170836        1.1381846683609791       -0.2211634336600817        0.1979110000000000
N       -0.0018397844097159        0.9827553726804747       -0.6831775188633634        0.1055000000000000
O       -0.2910960351499753        0.0010628317614009        0.1684020571682820       -0.3034110000000000
O        0.2910960351499753        0.0005765939167739        0.1677974857592594       -0.3034110000000000
N       -0.0011072723979993       -1.1392098579214471       -0.2219305789090532        0.1979110000000000
N        0.0019753589982925       -0.9795305995505436       -0.6832064695426583        0.1055000000000000

        RMSE         7.517804760E-01 kcal/mol
         MAE         5.067771607E-01 kcal/mol
     max. AE         4.515633918E+00 kcal/mol

Coordinates in bohr
s                   x[bohr]                   y[bohr]                   z[bohr]                      q[e]
local coordinates in angstrom
s                      x[a]                      y[a]                       z[a                      q[e]
x        0.5491143878839466       -0.0018961113533464        0.3515873600208579        0.1979110000000000
x       -0.3545629037271283        0.0034766886642501        0.5302124564477708        0.1055000000000000
x        0.1209896302298148        0.5500917826400986       -0.0669074429588363       -0.3034110000000000
x        0.1195416829623355       -0.5500917826400986       -0.0671376460018109       -0.3034110000000000
x       -0.5488181475075180        0.0020924415784975        0.3539888373525173        0.1979110000000000
x        0.3576366128936570       -0.0037328875062315        0.5249501959297049        0.1055000000000000
