6
s                      x[A]                      y[A]                      z[A]                      q[e]
N        1.0051381263846713       -0.2732005355194977       -0.0002501810761822        0.1979110000000000
N        0.7554683006711006       -0.8227904422176473       -0.0007773143205548        0.1055000000000000
O       -0.0143228623787739        0.1195173326665711       -0.2910382479225187       -0.3034110000000000
O       -0.0154137206086580        0.1195868770446744        0.2910382479225187       -0.3034110000000000
N       -1.0111857428648674       -0.4548601256464313        0.0000185496084226        0.1979110000000000
N       -0.7230599485377693       -0.9789523841149588        0.0005866509182884        0.1055000000000000

        RMSE         7.081944284E-01 kcal/mol
         MAE         4.861006821E-01 kcal/mol
     max. AE         4.042816523E+00 kcal/mol

Coordinates in bohr
s                   x[bohr]                   y[bohr]                   z[bohr]                      q[e]
local coordinates in angstrom
s                      x[a]                      y[a]                       z[a                      q[e]
x        0.5522389695333914        0.0004727737157566        0.2496050743338856        0.1979110000000000
x       -0.5597612503734126        0.0014689111792450        0.5039566220657434        0.1055000000000000
x       -0.0253858702221805        0.5499825806066561       -0.0146827256226061       -0.3034110000000000
x       -0.0265309884680391       -0.5499825806066561       -0.0164018653435960       -0.3034110000000000
x       -0.5472381115932876       -0.0000350536796532        0.2274392850104050        0.1979110000000000
x        0.5421936595157604       -0.0011086095668134        0.5282209772667557        0.1055000000000000
