6
s                      x[A]                      y[A]                      z[A]                      q[e]
N        1.0685223005820723       -0.2026575400560227       -0.0003109188707029        0.1979110000000000
N        0.8487246584657731       -0.7227967567994473       -0.0005555387271300        0.1055000000000000
O       -0.0136050940148762        0.1386336010877117       -0.2910384317855548       -0.3034110000000000
O       -0.0143655544563598        0.1384211408836182        0.2910384317855548       -0.3034110000000000
N       -1.0806153644233640       -0.4070104268110614       -0.0010324140862830        0.1979110000000000
N       -0.8239951561080497       -0.9050501568016427        0.0020299009904401        0.1055000000000000

        RMSE         7.223415064E-01 kcal/mol
         MAE         4.899513914E-01 kcal/mol
     max. AE         4.264419151E+00 kcal/mol

Coordinates in bohr
s                   x[bohr]                   y[bohr]                   z[bohr]                      q[e]
local coordinates in angstrom
s                      x[a]                      y[a]                       z[a                      q[e]
x        0.5522055841488509        0.0005875515128650        0.3136944558482355        0.1979110000000000
x       -0.5025130018029813        0.0010498160463612        0.4756310699121968        0.1055000000000000
x        0.0286895252447721        0.5499829280574389       -0.0478725261796171       -0.3034110000000000
x        0.0275939191542420       -0.5499829280574389       -0.0488854377676944       -0.3034110000000000
x       -0.5573674356000993        0.0019509798711397        0.2893728454746451        0.1979110000000000
x        0.4756677270506771       -0.0038359569337274        0.5212924201587157        0.1055000000000000
