6
s                      x[A]                      y[A]                      z[A]                      q[e]
N        1.0887182272868940       -0.3819770602495798       -0.0013020812463792        0.1979110000000000
N        0.8257924540490297       -0.8834303675637761        0.0015958633805009        0.1055000000000000
O        0.0075256693335632        0.1257541235489341       -0.2910474658685001       -0.3034110000000000
O        0.0059534869489413        0.1260477004381055        0.2910474658685001       -0.3034110000000000
N       -1.0820732036958385       -0.2804008652903083        0.0015290456043997        0.1979110000000000
N       -0.8430407260437309       -0.7971277360873986       -0.0033978506872405        0.1055000000000000

        RMSE         7.380594254E-01 kcal/mol
         MAE         5.029003984E-01 kcal/mol
     max. AE         4.505807768E+00 kcal/mol

Coordinates in bohr
s                   x[bohr]                   y[bohr]                   z[bohr]                      q[e]
local coordinates in angstrom
s                      x[a]                      y[a]                       z[a                      q[e]
x        0.5500000000000000        0.0024605769487515        0.2893058657332223        0.1979110000000000
x       -0.5001216393095835       -0.0030157447227940        0.4944295450795080        0.1055000000000000
x        0.0204950901756371        0.5500000000000000        0.0017956444603947       -0.3034110000000000
x        0.0190694480501239       -0.5500000000000000       -0.0008693379756716       -0.3034110000000000
x       -0.5500000000000000       -0.0028894774256506        0.2961373808547130        0.1979110000000000
x        0.5095325817586873        0.0064210072140833        0.4830251374226245        0.1055000000000000
