6
s                      x[A]                      y[A]                      z[A]                      q[e]
N        1.1614140680051193       -0.2924954387159381       -0.0016796180186671        0.1979110000000000
N        1.0017336772793457       -0.7504236443476278        0.0026567267558299        0.1055000000000000
O        0.0060959542946220        0.1645532299385764       -0.2910474658685001       -0.3034110000000000
O        0.0052265853339834        0.1630367280862462        0.2910474658685001       -0.3034110000000000
N       -1.1449137054311171       -0.1640670983928716       -0.0021078701315019        0.1979110000000000
N       -1.0260906981936273       -0.6325750313304834        0.0036369998966402        0.1055000000000000

        RMSE         7.701929648E-01 kcal/mol
         MAE         5.223168567E-01 kcal/mol
     max. AE         4.658456226E+00 kcal/mol

Coordinates in bohr
s                   x[bohr]                   y[bohr]                   z[bohr]                      q[e]
local coordinates in angstrom
s                      x[a]                      y[a]                       z[a                      q[e]
x        0.5500000000000000        0.0031740180506650        0.3423776384119262        0.1979110000000000
x       -0.3426328270132828       -0.0050204859586945        0.5500000000000000        0.1055000000000000
x        0.1127215250068422        0.5500000000000000       -0.0576770798085856       -0.3034110000000000
x        0.1094213694665616       -0.5500000000000000       -0.0575333835955121       -0.3034110000000000
x       -0.5500000000000000        0.0039832972565714        0.3379808637158848        0.1979110000000000
x        0.3399685882368290       -0.0068729337229684        0.5434633280210092        0.1055000000000000
