6
s                      x[A]                      y[A]                      z[A]                      q[e]
N        1.1259683090306991       -0.2202831356995693       -0.0007359805263514        0.1979110000000000
N        0.9360047654605506       -0.7099542364129803        0.0012197101353021        0.1055000000000000
O       -0.0049309599829428        0.1454646074497008       -0.2910829864386652       -0.3034110000000000
O       -0.0060994245472212        0.1451649072753567        0.2910829864386652       -0.3034110000000000
N       -1.1348619463891725       -0.3336787209960310       -0.0004334291559625        0.1979110000000000
N       -0.9222273973180439       -0.8094191397778246        0.0004325367482821        0.1055000000000000

        RMSE         7.582712782E-01 kcal/mol
         MAE         5.116489260E-01 kcal/mol
     max. AE         4.613017981E+00 kcal/mol

Coordinates in bohr
s                   x[bohr]                   y[bohr]                   z[bohr]                      q[e]
local coordinates in angstrom
s                      x[a]                      y[a]                       z[a                      q[e]
x        0.5482197067340167        0.0013908016284745        0.3344917299582448        0.1979110000000000
x       -0.4312369198560191       -0.0023049181081660        0.4950928249236313        0.1055000000000000
x        0.0585084849763007        0.5500671241494324       -0.0453013521910179       -0.3034110000000000
x        0.0568993869046608       -0.5500671241494324       -0.0469160241850659       -0.3034110000000000
x       -0.5498666112052888        0.0008190623995574        0.3269078233824985        0.1979110000000000
x        0.4169283983055720       -0.0008173759934493        0.5139984832785558        0.1055000000000000
