6
s                      x[A]                      y[A]                      z[A]                      q[e]
N        0.0008232734624326        0.8931419044937365       -0.4635504649527665        0.1979110000000000
N       -0.0004374078865758        0.6382494655171695       -0.9812673296335435        0.1055000000000000
O       -0.2916782403067640        0.0058422535368753        0.0856838802250772       -0.3034110000000000
O        0.2916782403067640        0.0062482586977460        0.0865220486939021       -0.3034110000000000
N       -0.0001432643592525       -0.8894060317875780       -0.4736492708498434        0.1979110000000000
N        0.0002267198070938       -0.6289912139603749       -0.9726008578777307        0.1055000000000000

        RMSE         7.470724721E-01 kcal/mol
         MAE         5.096111843E-01 kcal/mol
     max. AE         5.183368144E+00 kcal/mol

Coordinates in bohr
s                   x[bohr]                   y[bohr]                   z[bohr]                      q[e]
local coordinates in angstrom
s                      x[a]                      y[a]                       z[a                      q[e]
x        0.4807557563581213       -0.0015557613703550        0.1694509981566625        0.1979110000000000
x       -0.5334209228976761        0.0008265811107435        0.5702171292778075        0.1055000000000000
x       -0.0633830774916078        0.5511919909352585        0.0862683950477390       -0.3034110000000000
x       -0.0617504724041282       -0.5511919909352585        0.0856111105655941       -0.3034110000000000
x       -0.4627026420014317        0.0002707304025265        0.1788384202673114        0.1979110000000000
x        0.5353703472735560       -0.0004284383426238        0.5463318002775850        0.1055000000000000
