6
s                      x[A]                      y[A]                      z[A]                      q[e]
N        0.9152629195123144       -0.3738158467761761        0.0003780083425375        0.1979110000000000
N        0.6576911792644512       -0.9170276025077984        0.0005858288901319        0.1055000000000000
O       -0.0018436081111703        0.1041266173416719       -0.2913402937534160       -0.3034110000000000
O       -0.0013599110787888        0.1045861755935062        0.2913402937534160       -0.3034110000000000
N       -0.9080357908342994       -0.4710381199443702        0.0006753708983352        0.1979110000000000
N       -0.6264078390067721       -0.9776832432571465       -0.0015228277730117        0.1055000000000000

        RMSE         7.147562464E-01 kcal/mol
         MAE         4.891801556E-01 kcal/mol
     max. AE         4.543466244E+00 kcal/mol

Coordinates in bohr
s                   x[bohr]                   y[bohr]                   z[bohr]                      q[e]
local coordinates in angstrom
s                      x[a]                      y[a]                       z[a                      q[e]
x        0.5207219323478967       -0.0007143322405341        0.1903564129365805        0.1979110000000000
x       -0.5540102462409777       -0.0011070561587303        0.5586129776283997        0.1055000000000000
x       -0.0427215537454231        0.5505533645043883        0.0367985185395554       -0.3034110000000000
x       -0.0414616426539851       -0.5505533645043883        0.0368465512443663       -0.3034110000000000
x       -0.4846668496793427       -0.0012762660309580        0.1918505341586751        0.1979110000000000
x        0.5559336712644836        0.0028777274272329        0.5339632903414895        0.1055000000000000
