6
s                      x[A]                      y[A]                      z[A]                      q[e]
N        1.0262535878610968       -0.3330811391044652       -0.0007138711892621        0.1979110000000000
N        0.7664838025137822       -0.8736632828291916        0.0002681858304006        0.1055000000000000
O       -0.0079534160595115        0.1110147029321793       -0.2910448646219500       -0.3034110000000000
O       -0.0096895435756940        0.1109374733758955        0.2910448646219500       -0.3034110000000000
N       -1.0302066903189055       -0.4216580308044650        0.0006878479378932        0.1979110000000000
N       -0.7523597865896540       -0.9499671975810856       -0.0010121697905748        0.1055000000000000

        RMSE         7.262989556E-01 kcal/mol
         MAE         4.996443458E-01 kcal/mol
     max. AE         4.176061987E+00 kcal/mol

Coordinates in bohr
s                   x[bohr]                   y[bohr]                   z[bohr]                      q[e]
local coordinates in angstrom
s                      x[a]                      y[a]                       z[a                      q[e]
x        0.5456089050567243        0.0013490210365603        0.2431021384527412        0.1979110000000000
x       -0.5568149706605254       -0.0005067977701856        0.5061746935425617        0.1055000000000000
x       -0.0352461489983398        0.5499950843564356        0.0092673666408700       -0.3034110000000000
x       -0.0374279990746800       -0.5499950843564356        0.0068128780162624       -0.3034110000000000
x       -0.5472167825500946       -0.0012998442185790        0.2314466800671653        0.1979110000000000
x        0.5437611322222438        0.0019127236966483        0.5181022805772955        0.1055000000000000
