6
s                      x[A]                      y[A]                      z[A]                      q[e]
N        1.0193257730797185       -0.2622103220930170        0.0000535715286139        0.1979110000000000
N        0.7726276087171702       -0.8029740152606137       -0.0022540731354416        0.1055000000000000
O       -0.0130356116611024        0.1209656965416598       -0.2910474658685001       -0.3034110000000000
O       -0.0146872416972674        0.1210484523590754        0.2910474658685001       -0.3034110000000000
N       -1.0305017985711713       -0.4498460486417820        0.0001622688168147        0.1979110000000000
N       -0.7291901237985977       -0.9659255940264204        0.0010477497345586        0.1055000000000000

        RMSE         7.091297420E-01 kcal/mol
         MAE         4.846009278E-01 kcal/mol
     max. AE         4.146466411E+00 kcal/mol

Coordinates in bohr
s                   x[bohr]                   y[bohr]                   z[bohr]                      q[e]
local coordinates in angstrom
s                      x[a]                      y[a]                       z[a                      q[e]
x        0.5500000000000000       -0.0001012355172025        0.2665993625036718        0.1979110000000000
x       -0.5500000000000000        0.0042595808927367        0.4937665036691216        0.1055000000000000
x       -0.0175705256298742        0.5500000000000000       -0.0176676201196085       -0.3034110000000000
x       -0.0192872772989461       -0.5500000000000000       -0.0202788770783381       -0.3034110000000000
x       -0.5500000000000000       -0.0003066436224820        0.2522898443765401        0.1979110000000000
x        0.5500000000000000       -0.0019799600463368        0.5078735595735098        0.1055000000000000
