6
s                      x[A]                      y[A]                      z[A]                      q[e]
N       -0.0007666066269982        1.1301916017398177       -0.3152676756864125        0.1979110000000000
N        0.0007302529925332        0.9028310533706837       -0.8154263149993863        0.1055000000000000
O       -0.2911161431657708        0.0016889125035615        0.1269834241908175       -0.3034110000000000
O        0.2911161431657708        0.0005665896938765        0.1269488622197674       -0.3034110000000000
N       -0.0004526064997775       -1.1311855522861183       -0.3163409486949805        0.1979110000000000
N        0.0012341837231714       -0.8981098718689279       -0.8155401941438505        0.1055000000000000

        RMSE         7.646176223E-01 kcal/mol
         MAE         5.162627647E-01 kcal/mol
     max. AE         4.741329445E+00 kcal/mol

Coordinates in bohr
s                   x[bohr]                   y[bohr]                   z[bohr]                      q[e]
local coordinates in angstrom
s                      x[a]                      y[a]                       z[a                      q[e]
x        0.5501162585264865        0.0014486765709876        0.3114239006463322        0.1979110000000000
x       -0.4712914704559807       -0.0013799781581838        0.4975890620480641        0.1055000000000000
x        0.0202696761593870        0.5501297812828785       -0.0101891212843839       -0.3034110000000000
x        0.0190063725403888       -0.5501297812828785       -0.0118939594831318       -0.3034110000000000
x       -0.5495215993200873        0.0008553023271816        0.3141235178281931        0.1979110000000000
x        0.4765567940476103       -0.0023322692252918        0.4903835000441177        0.1055000000000000
