6
s                      x[A]                      y[A]                      z[A]                      q[e]
N        0.0009293598832791        1.1130028010372226       -0.1973158944399752        0.1979110000000000
N       -0.0014588869404747        0.9365310577402790       -0.6422546119816702        0.1055000000000000
O       -0.2910097685898461        0.0007750585477654        0.1785851074840344       -0.3034110000000000
O        0.2910097685898461       -0.0000959922774558        0.1775459194677959       -0.3034110000000000
N       -0.0022369605445689       -1.1135854486310408       -0.1995644403710214        0.1979110000000000
N        0.0042939877555406       -0.9321632395761804       -0.6411474201740527        0.1055000000000000

        RMSE         7.190726211E-01 kcal/mol
         MAE         4.793860660E-01 kcal/mol
     max. AE         4.284250834E+00 kcal/mol

Coordinates in bohr
s                   x[bohr]                   y[bohr]                   z[bohr]                      q[e]
local coordinates in angstrom
s                      x[a]                      y[a]                       z[a                      q[e]
x        0.5406701277129287       -0.0017562356513849        0.3848886230534845        0.1979110000000000
x       -0.3568452337676717        0.0027568967655043        0.4973280221638561        0.1055000000000000
x        0.1515543905347840        0.5499287624676690       -0.0815606925257271       -0.3034110000000000
x        0.1490407436413079       -0.5499287624676690       -0.0820581726552518       -0.3034110000000000
x       -0.5374757003964987        0.0042272427826902        0.3878991196088464        0.1979110000000000
x        0.3589845376718586       -0.0081144608440411        0.4890861024432525        0.1055000000000000
