6
s                      x[A]                      y[A]                      z[A]                      q[e]
N        1.0254630623978060       -0.3327805179072072       -0.0006258982506762        0.1979110000000000
N        0.7668019038906723       -0.8735535793683480        0.0000642651450407        0.1055000000000000
O       -0.0077628885380708        0.1113676379343732       -0.2910448646219500       -0.3034110000000000
O       -0.0093630803092190        0.1112445100102029        0.2910448646219500       -0.3034110000000000
N       -1.0288502179822812       -0.4221266027411041        0.0005690924501044        0.1979110000000000
N       -0.7530344034439660       -0.9495660310874200       -0.0008443320270387        0.1055000000000000

        RMSE         7.269119539E-01 kcal/mol
         MAE         5.003864580E-01 kcal/mol
     max. AE         4.191049454E+00 kcal/mol

Coordinates in bohr
s                   x[bohr]                   y[bohr]                   z[bohr]                      q[e]
local coordinates in angstrom
s                      x[a]                      y[a]                       z[a                      q[e]
x        0.5451079483000285        0.0011827762761811        0.2415844303450285        0.1979110000000000
x       -0.5562750471208346       -0.0001214435235397        0.5065105661997222        0.1055000000000000
x       -0.0345014622503186        0.5499950843564356        0.0091263102967787       -0.3034110000000000
x       -0.0365886693070934       -0.5499950843564356        0.0069258959447325       -0.3034110000000000
x       -0.5448330097169674       -0.0010754288707631        0.2301534246525989        0.1979110000000000
x        0.5423412168347568        0.0015955562900558        0.5185309620901535        0.1055000000000000
