6
s                      x[A]                      y[A]                      z[A]                      q[e]
N        1.0930001040470889       -0.2652898428312224       -0.0006821310400464        0.1979110000000000
N        0.8701003233259713       -0.7732341397658943       -0.0006448690152172        0.1055000000000000
O       -0.0043083129978254        0.1308316331378096       -0.2910474658685001       -0.3034110000000000
O       -0.0073310223718460        0.1310877906566256        0.2910474658685001       -0.3034110000000000
N       -1.1001286118022617       -0.3697388058167925        0.0003740822590230        0.1979110000000000
N       -0.8481270211059957       -0.8678008372833922        0.0007317250835888        0.1055000000000000

        RMSE         7.410499910E-01 kcal/mol
         MAE         5.046656179E-01 kcal/mol
     max. AE         4.480213685E+00 kcal/mol

Coordinates in bohr
s                   x[bohr]                   y[bohr]                   z[bohr]                      q[e]
local coordinates in angstrom
s                      x[a]                      y[a]                       z[a                      q[e]
x        0.5500000000000000        0.0012890408473614        0.3044597606211341        0.1979110000000000
x       -0.4821065270303066        0.0012186258255543        0.4876077884389414        0.1055000000000000
x        0.0201591643069993        0.5500000000000000       -0.0232651523589507       -0.3034110000000000
x        0.0173876921285822       -0.5500000000000000       -0.0282832464554146       -0.3034110000000000
x       -0.5500000000000000       -0.0007069130179460        0.2975841759690275        0.1979110000000000
x        0.4855891302034803       -0.0013827600071105        0.4980684029235674        0.1055000000000000
