6
s                      x[A]                      y[A]                      z[A]                      q[e]
N        0.9775075056790749       -0.4525503081055300        0.0006935699273964        0.1979110000000000
N        0.7080934310206499       -0.9934420174367673       -0.0024533035239513        0.1055000000000000
O        0.0083293690016670        0.1005949835214083       -0.2910594010243391       -0.3034110000000000
O        0.0080335891159177        0.1007180279581771        0.2910594010243391       -0.3034110000000000
N       -0.9769635283745614       -0.3690614013151238       -0.0003887699245767        0.1979110000000000
N       -0.7208925503510722       -0.9226534913657001        0.0008235552665011        0.1055000000000000

        RMSE         7.336677564E-01 kcal/mol
         MAE         5.064758117E-01 kcal/mol
     max. AE         4.305529235E+00 kcal/mol

Coordinates in bohr
s                   x[bohr]                   y[bohr]                   z[bohr]                      q[e]
local coordinates in angstrom
s                      x[a]                      y[a]                       z[a                      q[e]
x        0.5302030237321560       -0.0013106572116328        0.1834660841705045        0.1979110000000000
x       -0.5506831745487943        0.0046360717628886        0.5517749739738065        0.1055000000000000
x       -0.0361446066799544        0.5500225541758006        0.0588925161937368       -0.3034110000000000
x       -0.0363782905069456       -0.5500225541758006        0.0583340586708800       -0.3034110000000000
x       -0.5347674456706955        0.0007346686832648        0.1962607319892413        0.1979110000000000
x        0.5649269779187307       -0.0015562939028655        0.5415704571787501        0.1055000000000000
