6
s                      x[A]                      y[A]                      z[A]                      q[e]
N        1.0702891519232809       -0.2947798513325097        0.0000759402695415        0.1979110000000000
N        0.8226557210396105       -0.8166262352113547       -0.0034512135916308        0.1055000000000000
O       -0.0043767782718456        0.1210048531001695       -0.2910474658685001       -0.3034110000000000
O       -0.0079185086642386        0.1207323236532003        0.2910474658685001       -0.3034110000000000
N       -1.0768757219479201       -0.3939016728448514       -0.0009768413781416        0.1979110000000000
N       -0.7993586499938016       -0.9035177757940285        0.0043636095954052        0.1055000000000000

        RMSE         7.318493291E-01 kcal/mol
         MAE         4.994283853E-01 kcal/mol
     max. AE         4.412876442E+00 kcal/mol

Coordinates in bohr
s                   x[bohr]                   y[bohr]                   z[bohr]                      q[e]
local coordinates in angstrom
s                      x[a]                      y[a]                       z[a                      q[e]
x        0.5500000000000000       -0.0001435063113269        0.2864254279668871        0.1979110000000000
x       -0.5232276516272532        0.0065218484886398        0.4855579890362913        0.1055000000000000
x       -0.0042557151348597        0.5500000000000000       -0.0071298116586480       -0.3034110000000000
x       -0.0085971844646897       -0.5500000000000000       -0.0122495569367551       -0.3034110000000000
x       -0.5500000000000000        0.0018459626727024        0.2805233648626221        0.1979110000000000
x        0.5261228229827704       -0.0082460270537357        0.4912933015338423        0.1055000000000000
