6
s                      x[A]                      y[A]                      z[A]                      q[e]
N        0.9638066622192274       -0.4707566351753597        0.0005262149773551        0.1979110000000000
N        0.6897825531949449       -1.0047851574077808       -0.0012735178671823        0.1055000000000000
O        0.0086796665955367        0.0932145622189536       -0.2913074241666994       -0.3034110000000000
O        0.0087924179418936        0.0938722024702533        0.2913074241666994       -0.3034110000000000
N       -0.9613126638177771       -0.3883186621727133       -0.0001976303604555        0.1979110000000000
N       -0.7068135473068243       -0.9313841126387582       -0.0001654689307747        0.1055000000000000

        RMSE         7.386059166E-01 kcal/mol
         MAE         5.062380582E-01 kcal/mol
     max. AE         4.662583275E+00 kcal/mol

Coordinates in bohr
s                   x[bohr]                   y[bohr]                   z[bohr]                      q[e]
local coordinates in angstrom
s                      x[a]                      y[a]                       z[a                      q[e]
x        0.5190030253584155       -0.0009944021903152        0.1847060187287752        0.1979110000000000
x       -0.5529644296968854        0.0024065999848517        0.5554533271633773        0.1055000000000000
x       -0.0475443882339732        0.5504912499876369        0.0733671337815451       -0.3034110000000000
x       -0.0465309832850380       -0.5504912499876369        0.0726168930157201       -0.3034110000000000
x       -0.5214107614564227        0.0003734672553364        0.1927282663946244        0.1979110000000000
x        0.5552450941895586        0.0003126909614366        0.5466888036798991        0.1055000000000000
