6
s                      x[A]                      y[A]                      z[A]                      q[e]
N       -0.0001869728812490        1.0445697796279769       -0.3881844444631133        0.1979110000000000
N       -0.0004280828395170        0.7811080637437074       -0.9272696934566339        0.1055000000000000
O       -0.2910560487739657        0.0000244380473405        0.1025061137844989       -0.3034110000000000
O        0.2910560487739657       -0.0008672359353242        0.1027539552477145       -0.3034110000000000
N       -0.0000534309446353       -1.0450899722549407       -0.3891184777720623        0.1979110000000000
N        0.0001731203212091       -0.7781100814108597       -0.9271014034457085        0.1055000000000000

        RMSE         7.417186363E-01 kcal/mol
         MAE         5.114931708E-01 kcal/mol
     max. AE         4.280028784E+00 kcal/mol

Coordinates in bohr
s                   x[bohr]                   y[bohr]                   z[bohr]                      q[e]
local coordinates in angstrom
s                      x[a]                      y[a]                       z[a                      q[e]
x        0.5450524530710936        0.0003533275384484        0.2298374696019891        0.1979110000000000
x       -0.5515608861678629        0.0008089593256955        0.5181285256476258        0.1055000000000000
x       -0.0418818956454743        0.5500162193406908        0.0361805942034152       -0.3034110000000000
x       -0.0426276916477946       -0.5500162193406908        0.0345986860211269       -0.3034110000000000
x       -0.5443578048498239        0.0001009698519852        0.2317346404797718        0.1979110000000000
x        0.5550200497791593       -0.0003271499938364        0.5136305603518849        0.1055000000000000
