6
s                      x[A]                      y[A]                      z[A]                      q[e]
N        1.1089575411339225       -0.3067546911962098       -0.0006396833226856        0.1979110000000000
N        0.8883136278125099       -0.7696317725577364        0.0005919623856607        0.1055000000000000
O        0.0078388778103035        0.1620447660179992       -0.2910412289725615       -0.3034110000000000
O        0.0064605482178227        0.1608198470914610        0.2910412289725615       -0.3034110000000000
N       -1.0979458794604966       -0.1869808126944541       -0.0007396727436238        0.1979110000000000
N       -0.9073783105035628       -0.6626058505326583        0.0009157982399064        0.1055000000000000

        RMSE         7.252828358E-01 kcal/mol
         MAE         4.857196057E-01 kcal/mol
     max. AE         4.547940640E+00 kcal/mol

Coordinates in bohr
s                   x[bohr]                   y[bohr]                   z[bohr]                      q[e]
local coordinates in angstrom
s                      x[a]                      y[a]                       z[a                      q[e]
x        0.5464500250759556        0.0012088262868986        0.3509446714597289        0.1979110000000000
x       -0.4112440011722356       -0.0011186467854714        0.4985729663349048        0.1055000000000000
x        0.1076625351884104        0.5499882139748031       -0.0553820758586880       -0.3034110000000000
x        0.1042832687098780       -0.5499882139748031       -0.0562323463955181       -0.3034110000000000
x       -0.5450078735175339        0.0013977789079149        0.3555902313746628        0.1979110000000000
x        0.4150441491237871       -0.0017306078595993        0.4814085271354998        0.1055000000000000
