6
s                      x[A]                      y[A]                      z[A]                      q[e]
N        1.1466511527134153       -0.3519089013958421        0.0006753183938512        0.1979110000000000
N        0.9517287966304603       -0.8016131931179830       -0.0005260901485928        0.1055000000000000
O        0.0134899266326278        0.1666297826202868       -0.2910559355782030       -0.3034110000000000
O        0.0125433921805551        0.1664760274787751        0.2910559355782030       -0.3034110000000000
N       -1.1241960995940157       -0.0995394984461671       -0.0001372142648302        0.1979110000000000
N       -0.9801437067894064       -0.5678557553709437        0.0020141005725786        0.1055000000000000

        RMSE         7.537385851E-01 kcal/mol
         MAE         5.088442364E-01 kcal/mol
     max. AE         4.603379078E+00 kcal/mol

Coordinates in bohr
s                   x[bohr]                   y[bohr]                   z[bohr]                      q[e]
local coordinates in angstrom
s                      x[a]                      y[a]                       z[a                      q[e]
x        0.5493500642064646       -0.0012761668118628        0.3535256030791061        0.1979110000000000
x       -0.3581152461611055        0.0009941662981419        0.5389410349307582        0.1055000000000000
x        0.1245267246881667        0.5500160054317007       -0.0560227047112676       -0.3034110000000000
x        0.1232631736538679       -0.5500160054317007       -0.0573216566458541       -0.3034110000000000
x       -0.5478315293357809        0.0002592973810351        0.3676872031101084        0.1979110000000000
x        0.3702198940309245       -0.0038060984713013        0.4880675702261215        0.1055000000000000
