6
s                      x[A]                      y[A]                      z[A]                      q[e]
N        1.1102593591497609       -0.1143339261837529        0.0016271173102839        0.1979110000000000
N        0.9744987075315253       -0.5915317349830435       -0.0051117756087779        0.1055000000000000
O       -0.0107573561664992        0.1635608281358333       -0.2910474658685001       -0.3034110000000000
O       -0.0129898854690542        0.1649493523482017        0.2910474658685001       -0.3034110000000000
N       -1.1322074979257226       -0.3586626332771321        0.0004417722597777        0.1979110000000000
N       -0.9402612238098251       -0.8203714947134482        0.0009924990726922        0.1055000000000000

        RMSE         7.475098981E-01 kcal/mol
         MAE         5.045086721E-01 kcal/mol
     max. AE         4.360056338E+00 kcal/mol

Coordinates in bohr
s                   x[bohr]                   y[bohr]                   z[bohr]                      q[e]
local coordinates in angstrom
s                      x[a]                      y[a]                       z[a                      q[e]
x        0.5500000000000000       -0.0030748060904282        0.3465182043893822        0.1979110000000000
x       -0.3736220172516299        0.0096598559153856        0.5075627516082791        0.1055000000000000
x        0.1018571534660929        0.5500000000000000       -0.0717511417063263       -0.3034110000000000
x        0.1023857941532255       -0.5500000000000000       -0.0766912232234043       -0.3034110000000000
x       -0.5500000000000000       -0.0008348285808044        0.3341622700712669        0.1979110000000000
x        0.3699166164225778       -0.0018755514271591        0.5499990000000000        0.1055000000000000
