6
s                      x[A]                      y[A]                      z[A]                      q[e]
N       -0.0006126337957812        0.9386093210760247       -0.4773447491563807        0.1979110000000000
N        0.0002427832358359        0.6782794401871249       -0.9995878313206972        0.1055000000000000
O       -0.2910474658685001        0.0006852268732269        0.0741401062503866       -0.3034110000000000
O        0.2910474658685001       -0.0007090911455154        0.0756607891639554       -0.3034110000000000
N       -0.0001432080616015       -0.9384229746511942       -0.4774529100029151        0.1979110000000000
N        0.0010192271078663       -0.6782790777721177       -0.9995874457252059        0.1055000000000000

        RMSE         7.684733078E-01 kcal/mol
         MAE         5.304133562E-01 kcal/mol
     max. AE         5.078188565E+00 kcal/mol

Coordinates in bohr
s                   x[bohr]                   y[bohr]                   z[bohr]                      q[e]
local coordinates in angstrom
s                      x[a]                      y[a]                       z[a                      q[e]
x        0.4843616370567785        0.0011577100892262        0.1677992082238278        0.1979110000000000
x       -0.5500000000000000       -0.0004587938235823        0.5500000000000000        0.1055000000000000
x       -0.0934113479044967        0.5500000000000000        0.1012767703657981       -0.3034110000000000
x       -0.0933632257789636       -0.5500000000000000        0.0973782737101390       -0.3034110000000000
x       -0.4839650579687569        0.0002706240153846        0.1677069733110830        0.1979110000000000
x        0.5500000000000000       -0.0019260600935098        0.5499990000000000        0.1055000000000000
