6
s                      x[A]                      y[A]                      z[A]                      q[e]
N        1.1610312230213800       -0.3579261660625501       -0.0007526504032557        0.1979110000000000
N        0.9248396414030189       -0.7952015278017448        0.0022356041302377        0.1055000000000000
O        0.0239776330015538        0.1580785595456264       -0.2911071174027353       -0.3034110000000000
O        0.0222818618470650        0.1564252398398561        0.2911071174027353       -0.3034110000000000
N       -1.1320238776642908       -0.1307418709406315       -0.0011701898160640        0.1979110000000000
N       -0.9512680622596434       -0.5582293786041510        0.0027703088253732        0.1055000000000000

        RMSE         7.908082651E-01 kcal/mol
         MAE         5.274635691E-01 kcal/mol
     max. AE         4.981766279E+00 kcal/mol

Coordinates in bohr
s                   x[bohr]                   y[bohr]                   z[bohr]                      q[e]
local coordinates in angstrom
s                      x[a]                      y[a]                       z[a                      q[e]
x        0.5556130351856154        0.0014223031303686        0.3823096637847812        0.1979110000000000
x       -0.3773200934997476       -0.0042246795310916        0.4903616826804864        0.1055000000000000
x        0.1226492861121642        0.5501127250626681       -0.0305199167768109       -0.3034110000000000
x        0.1182522037856870       -0.5501127250626681       -0.0313542714176833       -0.3034110000000000
x       -0.5003559825421462        0.0022113382671609        0.4056560365797850        0.1979110000000000
x        0.3763631144004194       -0.0052351249628941        0.4308771410223926        0.1055000000000000
