6
s                      x[A]                      y[A]                      z[A]                      q[e]
N        0.9219085777063124       -0.4969219698771496        0.0009345435075932        0.1979110000000000
N        0.6589460448762322       -1.0218742638030214       -0.0030105475461944        0.1055000000000000
O        0.0087873466167628        0.0862821834659181       -0.2910633476325348       -0.3034110000000000
O        0.0082880544722590        0.0866346952096210        0.2910633476325348       -0.3034110000000000
N       -0.9239441740226727       -0.4169166189041363       -0.0006601410693992        0.1979110000000000
N       -0.6756699524772248       -0.9555813497543212        0.0016814200305521        0.1055000000000000

        RMSE         7.540668552E-01 kcal/mol
         MAE         5.187683148E-01 kcal/mol
     max. AE         5.031703076E+00 kcal/mol

Coordinates in bohr
s                   x[bohr]                   y[bohr]                   z[bohr]                      q[e]
local coordinates in angstrom
s                      x[a]                      y[a]                       z[a                      q[e]
x        0.4900981976397816       -0.0017660312816759        0.1570700645552279        0.1979110000000000
x       -0.5419662523599982        0.0056891103499765        0.5643481682818674        0.1055000000000000
x       -0.0597097903728354        0.5500300121844148        0.0915338376489672       -0.3034110000000000
x       -0.0599680335071753       -0.5500300121844148        0.0904080901759698       -0.3034110000000000
x       -0.4999148885653995        0.0012474858253313        0.1676349606823351        0.1979110000000000
x        0.5488395329384730       -0.0031774233596025        0.5631270459052757        0.1055000000000000
