6
s                      x[A]                      y[A]                      z[A]                      q[e]
N        0.8848229456821658       -0.5487991435461066        0.0004910889891054        0.1979110000000000
N        0.6018198487985155       -1.0444768743567601       -0.0013361445995651        0.1055000000000000
O        0.0119438524458451        0.0879620877253758       -0.2910461188792603       -0.3034110000000000
O        0.0116235761417447        0.0885826122633509        0.2910461188792603       -0.3034110000000000
N       -0.8943900582625777       -0.3822897186131445       -0.0007280134323786        0.1979110000000000
N       -0.6476626699221048       -0.9127483805821961        0.0013183228045824        0.1055000000000000

        RMSE         7.428485943E-01 kcal/mol
         MAE         5.083952004E-01 kcal/mol
     max. AE         5.022634012E+00 kcal/mol

Coordinates in bohr
s                   x[bohr]                   y[bohr]                   z[bohr]                      q[e]
local coordinates in angstrom
s                      x[a]                      y[a]                       z[a                      q[e]
x        0.4590587092238820       -0.0009280236926372        0.1645348623624159        0.1979110000000000
x       -0.5495227692827029        0.0025249473571876        0.5468573575744813        0.1055000000000000
x       -0.0477913030936179        0.5499974545592430        0.0934146249414880       -0.3034110000000000
x       -0.0475120786832122       -0.5499974545592430        0.0921249026660007       -0.3034110000000000
x       -0.4964724441742874        0.0013757460028501        0.1776152512902627        0.1979110000000000
x        0.5415960019636259       -0.0024912690456063        0.5579432583108428        0.1055000000000000
