6
s                      x[A]                      y[A]                      z[A]                      q[e]
N        1.1060872028793316       -0.3625184267396778       -0.0005017151224476        0.1979110000000000
N        0.8548496934241976       -0.8706282121201333       -0.0001411150267648        0.1055000000000000
O        0.0103069354602267        0.1335494855665192       -0.2914430550294601       -0.3034110000000000
O        0.0091084652917361        0.1331365950744895        0.2914430550294601       -0.3034110000000000
N       -1.0926424197498528       -0.2616146660715516       -0.0005125224308038        0.1979110000000000
N       -0.8766835019097253       -0.7781624279538696        0.0002952764236832        0.1055000000000000

        RMSE         7.349203616E-01 kcal/mol
         MAE         4.951898154E-01 kcal/mol
     max. AE         4.544885114E+00 kcal/mol

Coordinates in bohr
s                   x[bohr]                   y[bohr]                   z[bohr]                      q[e]
local coordinates in angstrom
s                      x[a]                      y[a]                       z[a                      q[e]
x        0.5676826463059115        0.0009481041744266        0.2981203040403670        0.1979110000000000
x       -0.4820258282802570        0.0002666687527721        0.5113816295206561        0.1055000000000000
x        0.0394546691882169        0.5507475551724141       -0.0059499029894852       -0.3034110000000000
x        0.0374501794792650       -0.5507475551724141       -0.0072614064002892       -0.3034110000000000
x       -0.5553986644894167        0.0009685270273732        0.3000387427700844        0.1979110000000000
x        0.4829370627098797       -0.0005579915720659        0.5031257775481208        0.1055000000000000
