6
s                      x[A]                      y[A]                      z[A]                      q[e]
N        1.0921951153243090       -0.1725973500702891       -0.0007377335861826        0.1979110000000000
N        0.8845073649915307       -0.6737960574833037        0.0008875895185176        0.1055000000000000
O       -0.0136025285004915        0.1474935069942965       -0.2910474658685001       -0.3034110000000000
O       -0.0145097787839556        0.1474015183133309        0.2910474658685001       -0.3034110000000000
N       -1.1010203112662382       -0.3899565615835602       -0.0001086541820590        0.1979110000000000
N       -0.8729791841119836       -0.8665726827337739        0.0004578549732674        0.1055000000000000

        RMSE         7.345460091E-01 kcal/mol
         MAE         4.966781115E-01 kcal/mol
     max. AE         4.305705236E+00 kcal/mol

Coordinates in bohr
s                   x[bohr]                   y[bohr]                   z[bohr]                      q[e]
local coordinates in angstrom
s                      x[a]                      y[a]                       z[a                      q[e]
x        0.5500000000000000        0.0013941144314369        0.3405048723403624        0.1979110000000000
x       -0.4679938286420391       -0.0016773011018253        0.4620597805433385        0.1055000000000000
x        0.0542142531028108        0.5500000000000000       -0.0599263498409918       -0.3034110000000000
x        0.0532232042376816       -0.5500000000000000       -0.0613360996951129       -0.3034110000000000
x       -0.5500000000000000        0.0002053266464772        0.3087270512648407        0.1979110000000000
x        0.4241706601079832       -0.0008652205046542        0.5276112117196732        0.1055000000000000
