6
s                      x[A]                      y[A]                      z[A]                      q[e]
N       -0.0000526630239649        1.0924545691807375       -0.2948430565230130        0.1979110000000000
N       -0.0007213321631561        0.8581714358523842       -0.7877774950834376        0.1055000000000000
O       -0.2910474658685001        0.0011971823526021        0.1414715215540698       -0.3034110000000000
O        0.2910474658685001       -0.0006116787716217        0.1427990782482740       -0.3034110000000000
N        0.0012844137286089       -1.0912675648385060       -0.2940188348917242        0.1979110000000000
N       -0.0026875605092345       -0.8589132688573240       -0.7898393294359006        0.1055000000000000

        RMSE         7.282623449E-01 kcal/mol
         MAE         4.929995447E-01 kcal/mol
     max. AE         4.490609394E+00 kcal/mol

Coordinates in bohr
s                   x[bohr]                   y[bohr]                   z[bohr]                      q[e]
local coordinates in angstrom
s                      x[a]                      y[a]                       z[a                      q[e]
x        0.5500000000000000        0.0000995186922321        0.3191723387181833        0.1979110000000000
x       -0.4676553972208935        0.0013631202338491        0.4868061602575743        0.1055000000000000
x        0.0510813864336374        0.5500000000000000       -0.0327151803870970       -0.3034110000000000
x        0.0511924252812655       -0.5500000000000000       -0.0369537870932837       -0.3034110000000000
x       -0.5500000000000000       -0.0024271901788489        0.3164414911815897        0.1979110000000000
x        0.4700562538173162        0.0050787533080492        0.4901799227890314        0.1055000000000000
