6
s                      x[A]                      y[A]                      z[A]                      q[e]
N       -0.0004231783060003        0.8644576082759982       -0.4394698337135598        0.1979110000000000
N        0.0016804684458398        0.5909608340712188       -0.9496203442853011        0.1055000000000000
O       -0.2910474658685001        0.0006827778812840        0.1030716128418819       -0.3034110000000000
O        0.2910474658685001        0.0008457415107257        0.1032969191169776       -0.3034110000000000
N       -0.0000339860355624       -0.8616791544894868       -0.4410027578311373        0.1979110000000000
N       -0.0016200597796724       -0.5909604784408008       -0.9496199524236850        0.1055000000000000

        RMSE         7.115947995E-01 kcal/mol
         MAE         4.839014305E-01 kcal/mol
     max. AE         4.790050627E+00 kcal/mol

Coordinates in bohr
s                   x[bohr]                   y[bohr]                   z[bohr]                      q[e]
local coordinates in angstrom
s                      x[a]                      y[a]                       z[a                      q[e]
x        0.4806019077215026        0.0007996911005758        0.1834493671642838        0.1979110000000000
x       -0.5500000000000000       -0.0031756251251109        0.5500000000000000        0.1055000000000000
x       -0.0391164384419883        0.5500000000000000        0.0450214825535055       -0.3034110000000000
x       -0.0386022588297769       -0.5500000000000000        0.0449131576680396       -0.3034110000000000
x       -0.4747670597792077        0.0000642242993030        0.1820659060823310        0.1979110000000000
x        0.5500000000000000        0.0030614692904503        0.5499990000000000        0.1055000000000000
