6
s                      x[A]                      y[A]                      z[A]                      q[e]
N        1.0817084826073007       -0.2805230728524251       -0.0008589360320679        0.1979110000000000
N        0.8430062521214146       -0.7989743007206239        0.0007687989811765        0.1055000000000000
O       -0.0063522897991115        0.1264184488545259       -0.2910698163624831       -0.3034110000000000
O       -0.0078075785770971        0.1260809260555717        0.2910698163624831       -0.3034110000000000
N       -1.0879563496363589       -0.3801594601436447        0.0001021331518946        0.1979110000000000
N       -0.8290726386635104       -0.8844761145781784       -0.0001239432384352        0.1055000000000000

        RMSE         7.358948279E-01 kcal/mol
         MAE         5.010007521E-01 kcal/mol
     max. AE         4.462196443E+00 kcal/mol

Coordinates in bohr
s                   x[bohr]                   y[bohr]                   z[bohr]                      q[e]
local coordinates in angstrom
s                      x[a]                      y[a]                       z[a                      q[e]
x        0.5494168029777029        0.0016231538598959        0.2957035118943168        0.1979110000000000
x       -0.5124342119806897       -0.0014528195199546        0.4849645719586988        0.1055000000000000
x        0.0063785240686229        0.5500422363123967       -0.0190614627044852       -0.3034110000000000
x        0.0042843273422477       -0.5500422363123967       -0.0209546600985959       -0.3034110000000000
x       -0.5517791609045162       -0.0001930036854105        0.2860340071947576        0.1979110000000000
x        0.4977859287937463        0.0002342187757449        0.5005018588562962        0.1055000000000000
