6
s                      x[A]                      y[A]                      z[A]                      q[e]
N        1.0050022583290192       -0.2903422653949779        0.0002236715979028        0.1979110000000000
N        0.7526718930240484       -0.8311956925668090       -0.0022903054016877        0.1055000000000000
O       -0.0059572398392983        0.1317630855393753       -0.2910756101816768       -0.3034110000000000
O       -0.0065707165975155        0.1311034676167372        0.2910756101816768       -0.3034110000000000
N       -1.0086192692386775       -0.3853782005094545       -0.0007225639515626        0.1979110000000000
N       -0.7320030745626416       -0.9157271388518615        0.0015730136757765        0.1055000000000000

        RMSE         6.917933315E-01 kcal/mol
         MAE         4.728619642E-01 kcal/mol
     max. AE         4.074487704E+00 kcal/mol

Coordinates in bohr
s                   x[bohr]                   y[bohr]                   z[bohr]                      q[e]
local coordinates in angstrom
s                      x[a]                      y[a]                       z[a                      q[e]
x        0.5565409365940468       -0.0004226780620797        0.2563687249457871        0.1979110000000000
x       -0.5427205685373337        0.0043280499528464        0.5085840920291957        0.1055000000000000
x        0.0112502909382783        0.5500531850438932       -0.0230416916861031       -0.3034110000000000
x        0.0095544707137378       -0.5500531850438932       -0.0231897885037142       -0.3034110000000000
x       -0.5524917254060711        0.0013654479765819        0.2464350348127482        0.1979110000000000
x        0.5439354069585534       -0.0029725650388173        0.5212556772312382        0.1055000000000000
