6
s                      x[A]                      y[A]                      z[A]                      q[e]
N        0.0006606166912947        1.1235280934942684       -0.2469862487891129        0.1979110000000000
N       -0.0018950044058822        0.9378996693363195       -0.7277420364937985        0.1055000000000000
O       -0.2916378620065282        0.0054372079326192        0.1596183270206913       -0.3034110000000000
O        0.2916378620065282        0.0049214198092186        0.1590389973516532       -0.3034110000000000
N       -0.0017848427177114       -1.1212852401880882       -0.2505274835295864        0.1979110000000000
N        0.0027866128418909       -0.9379345424550801       -0.7299772574015855        0.1055000000000000

        RMSE         7.417785572E-01 kcal/mol
         MAE         4.943487722E-01 kcal/mol
     max. AE         4.649060852E+00 kcal/mol

Coordinates in bohr
s                   x[bohr]                   y[bohr]                   z[bohr]                      q[e]
local coordinates in angstrom
s                      x[a]                      y[a]                       z[a                      q[e]
x        0.5589868210095119       -0.0012483846204532        0.3389797824188463        0.1979110000000000
x       -0.3980658335792668        0.0035810393336533        0.5191686782409306        0.1055000000000000
x        0.0995828289719611        0.5511156870064013       -0.0495975390355170       -0.3034110000000000
x        0.0981388751463328       -0.5511156870064013       -0.0498496602771468       -0.3034110000000000
x       -0.5510659655852805        0.0033728639134925        0.3389005288281624        0.1979110000000000
x        0.4016220108442212       -0.0052659350888575        0.5214489731597496        0.1055000000000000
