6
s                      x[A]                      y[A]                      z[A]                      q[e]
N        0.0003243072010771        0.9791911686647927       -0.4408319132136504        0.1979110000000000
N       -0.0013103575710726        0.7171870121422622       -0.9828630983621539        0.1055000000000000
O       -0.2910226312886894        0.0010022954585995        0.0854029162750318       -0.3034110000000000
O        0.2910226312886894       -0.0000533939770663        0.0862815483943411       -0.3034110000000000
N       -0.0000065151416051       -0.9784946652798431       -0.4410609640262844        0.1979110000000000
N        0.0001582255665632       -0.7149711982429190       -0.9805468056478098        0.1055000000000000

        RMSE         7.576063705E-01 kcal/mol
         MAE         5.208041938E-01 kcal/mol
     max. AE         4.769312212E+00 kcal/mol

Coordinates in bohr
s                   x[bohr]                   y[bohr]                   z[bohr]                      q[e]
local coordinates in angstrom
s                      x[a]                      y[a]                       z[a                      q[e]
x        0.5212510380902131       -0.0006128517905495        0.1827416628220817        0.1979110000000000
x       -0.5545928977217045        0.0024762169357473        0.5527021858069929        0.1055000000000000
x       -0.0747676743530974        0.5499530694457171        0.0768508542050768       -0.3034110000000000
x       -0.0749941123967801       -0.5499530694457171        0.0742652307103526       -0.3034110000000000
x       -0.5200167398752455        0.0000123118333022        0.1821121825796581        0.1979110000000000
x        0.5544348516787068       -0.0002990029868499        0.5466467860060220        0.1055000000000000
