6
s                      x[A]                      y[A]                      z[A]                      q[e]
N        1.0880682524270968       -0.1995909393448459       -0.0026148706881110        0.1979110000000000
N        0.8868745862148246       -0.6871297673261907        0.0040135652953412        0.1055000000000000
O       -0.0054977624121168        0.1584311950647105       -0.2910474658685001       -0.3034110000000000
O       -0.0077748804338301        0.1580912839912374        0.2910474658685001       -0.3034110000000000
N       -1.0955529450630725       -0.3143652034504278        0.0016423653766228        0.1979110000000000
N       -0.8738940601229718       -0.7895007353835596       -0.0031860779872671        0.1055000000000000

        RMSE         7.192101374E-01 kcal/mol
         MAE         4.835963202E-01 kcal/mol
     max. AE         4.298938546E+00 kcal/mol

Coordinates in bohr
s                   x[bohr]                   y[bohr]                   z[bohr]                      q[e]
local coordinates in angstrom
s                      x[a]                      y[a]                       z[a                      q[e]
x        0.5500000000000000        0.0049413894540173        0.3433962009669798        0.1979110000000000
x       -0.4370547246569181       -0.0075845391948371        0.4815873283263293        0.1055000000000000
x        0.0880147441394072        0.5500000000000000       -0.0636709823688373       -0.3034110000000000
x        0.0852835214700953       -0.5500000000000000       -0.0670577130467694       -0.3034110000000000
x       -0.5500000000000000       -0.0031036207597515        0.3325960423761903        0.1979110000000000
x        0.4252832207815069        0.0060208148102848        0.5071237457574140        0.1055000000000000
