6
s                      x[A]                      y[A]                      z[A]                      q[e]
N        1.0576377586680801       -0.2178688090239664       -0.0002234020251675        0.1979110000000000
N        0.8278595195278015       -0.7449001936529820       -0.0006500892820733        0.1055000000000000
O       -0.0134912644398343        0.1340047732598263       -0.2910376211581465       -0.3034110000000000
O       -0.0143818108689492        0.1339052903520909        0.2910376211581465       -0.3034110000000000
N       -1.0690214263435025       -0.4178793086364785       -0.0007414452797485        0.1979110000000000
N       -0.7997099477810763       -0.9197719811092839        0.0018871282750420        0.1055000000000000

        RMSE         7.173780096E-01 kcal/mol
         MAE         4.879215595E-01 kcal/mol
     max. AE         4.239545399E+00 kcal/mol

Coordinates in bohr
s                   x[bohr]                   y[bohr]                   z[bohr]                      q[e]
local coordinates in angstrom
s                      x[a]                      y[a]                       z[a                      q[e]
x        0.5532324881846762        0.0004221686434391        0.3032404504356236        0.1979110000000000
x       -0.5191917837455549        0.0012284907002140        0.4774753433448495        0.1055000000000000
x        0.0162221414111627        0.5499813961936475       -0.0407735487438003       -0.3034110000000000
x        0.0151528360720476       -0.5499813961936475       -0.0420865770270211       -0.3034110000000000
x       -0.5562478438714606        0.0014011285157380        0.2809738267187640        0.1979110000000000
x        0.4944001191934149       -0.0035661556034370        0.5148141672143538        0.1055000000000000
