6
s                      x[A]                      y[A]                      z[A]                      q[e]
N       -0.0009698107028403        0.9450958773722595       -0.4099576723489968        0.1979110000000000
N       -0.0005800373976993        0.6823896941146753       -0.9519577662572885        0.1055000000000000
O       -0.2910474658685001        0.0014880862743498        0.1074930566253082       -0.3034110000000000
O        0.2910474658685001       -0.0008234171757137        0.1067635629157757       -0.3034110000000000
N       -0.0013387308030475       -0.9440777905408654       -0.4114375858719495        0.1979110000000000
N        0.0046600845316309       -0.6823893184632739       -0.9519573935448725        0.1055000000000000

        RMSE         7.271205045E-01 kcal/mol
         MAE         5.000336181E-01 kcal/mol
     max. AE         4.437512165E+00 kcal/mol

Coordinates in bohr
s                   x[bohr]                   y[bohr]                   z[bohr]                      q[e]
local coordinates in angstrom
s                      x[a]                      y[a]                       z[a                      q[e]
x        0.5267365792857742        0.0018326766219059        0.1810225172428214        0.1979110000000000
x       -0.5500000000000000        0.0010961118241750        0.5500000000000000        0.1055000000000000
x       -0.0350392277608057        0.5500000000000000        0.0387264401269895       -0.3034110000000000
x       -0.0390943910286781       -0.5500000000000000        0.0365965565465555       -0.3034110000000000
x       -0.5233962581273647        0.0025298345734740        0.1816265142904342        0.1979110000000000
x        0.5500000000000000       -0.0088062834862648        0.5499990000000000        0.1055000000000000
