6
s                      x[A]                      y[A]                      z[A]                      q[e]
N        0.0002732878979745        0.9932437554305215       -0.4245843959565273        0.1979110000000000
N       -0.0012458563070827        0.7326997532408508       -0.9709372723162085        0.1055000000000000
O       -0.2910281212315046        0.0003237136669661        0.0917708974124465       -0.3034110000000000
O        0.2910281212315046       -0.0005265045587611        0.0922637968887821       -0.3034110000000000
N       -0.0000289266823106       -0.9929065890226465       -0.4252318638073853        0.1979110000000000
N        0.0000795988194908       -0.7320369255655440       -0.9707955197046669        0.1055000000000000

        RMSE         7.498777411E-01 kcal/mol
         MAE         5.186591381E-01 kcal/mol
     max. AE         4.418961130E+00 kcal/mol

Coordinates in bohr
s                   x[bohr]                   y[bohr]                   z[bohr]                      q[e]
local coordinates in angstrom
s                      x[a]                      y[a]                       z[a                      q[e]
x        0.5286889498934215       -0.0005164392805739        0.1861567496744101        0.1979110000000000
x       -0.5574357002642500        0.0023543272120605        0.5449276451254264        0.1055000000000000
x       -0.0648541916175418        0.5499634439340824        0.0629858407833126       -0.3034110000000000
x       -0.0652931767308473       -0.5499634439340824        0.0611813183513732       -0.3034110000000000
x       -0.5273646803771044        0.0000546635072851        0.1865431635887944        0.1979110000000000
x        0.5581088371482110       -0.0001504199687474        0.5438378944600117        0.1055000000000000
