6
s                      x[A]                      y[A]                      z[A]                      q[e]
N        1.0382602181352751       -0.3701839642441319       -0.0012072808301015        0.1979110000000000
N        0.7631293911916012       -0.8773033274465600        0.0014323833194049        0.1055000000000000
O        0.0070456077567524        0.1377132462434990       -0.2910384810853716       -0.3034110000000000
O        0.0054475374339284        0.1368393838754539        0.2910384810853716       -0.3034110000000000
N       -1.0337560618178017       -0.2698149982734644        0.0002450000390396        0.1979110000000000
N       -0.7807021994096727       -0.7909570933361355       -0.0007532276598512        0.1055000000000000

        RMSE         6.981892059E-01 kcal/mol
         MAE         4.748714421E-01 kcal/mol
     max. AE         4.265480460E+00 kcal/mol

Coordinates in bohr
s                   x[bohr]                   y[bohr]                   z[bohr]                      q[e]
local coordinates in angstrom
s                      x[a]                      y[a]                       z[a                      q[e]
x        0.5505207997484831        0.0022814301254073        0.2818794994946074        0.1979110000000000
x       -0.5187199156534916       -0.0027068121803495        0.4949851121346001        0.1055000000000000
x        0.0422466417940086        0.5499830212205907       -0.0178219642057229       -0.3034110000000000
x        0.0390458861838852       -0.5499830212205907       -0.0190876826709427       -0.3034110000000000
x       -0.5535873485059710       -0.0004629829745113        0.2915144576090825        0.1979110000000000
x        0.5248996057534896        0.0014233939872383        0.4796785850230663        0.1055000000000000
