6
s                      x[A]                      y[A]                      z[A]                      q[e]
N        0.9628206146866665       -0.4252911723886041       -0.0002599152102435        0.1979110000000000
N        0.6761587888966516       -0.9519860187291299        0.0001474756091990        0.1055000000000000
O        0.0070755149696835        0.1183422293472531       -0.2914188737830227       -0.3034110000000000
O        0.0067881403021237        0.1182028721742244        0.2914188737830227       -0.3034110000000000
N       -0.9622741094898760       -0.3331668773679833       -0.0001537343421968        0.1979110000000000
N       -0.6997824759927588       -0.8782135467722374       -0.0002510552961902        0.1055000000000000

        RMSE         6.997192459E-01 kcal/mol
         MAE         4.767444137E-01 kcal/mol
     max. AE         4.150804672E+00 kcal/mol

Coordinates in bohr
s                   x[bohr]                   y[bohr]                   z[bohr]                      q[e]
local coordinates in angstrom
s                      x[a]                      y[a]                       z[a                      q[e]
x        0.5285908711621232        0.0004911685632010        0.2175242961152435        0.1979110000000000
x       -0.5613727206025487       -0.0002786885115711        0.5274785787751171        0.1055000000000000
x       -0.0022052570616324        0.5507018592392754        0.0208864672717795       -0.3034110000000000
x       -0.0027734842369682       -0.5507018592392754        0.0206830391702226       -0.3034110000000000
x       -0.5408319643833011        0.0002905158028295        0.2239146362826432        0.1979110000000000
x        0.5613180631762589        0.0004744257521452        0.5275517795926135        0.1055000000000000
