6
s                      x[A]                      y[A]                      z[A]                      q[e]
N        0.8975954351403825       -0.3887758240272810       -0.0002519300448585        0.1979110000000000
N        0.6412595673505063       -0.9244341967593951       -0.0002019550563420        0.1055000000000000
O       -0.0033886824678374        0.1014875834060126       -0.2910949636089502       -0.3034110000000000
O       -0.0040246003934033        0.1014751775519043        0.2910949636089502       -0.3034110000000000
N       -0.8924520863888370       -0.4782881442787379        0.0002495157440820        0.1979110000000000
N       -0.6116380524717869       -0.9933528389241175       -0.0005834101596940        0.1055000000000000

        RMSE         7.202672659E-01 kcal/mol
         MAE         4.924965255E-01 kcal/mol
     max. AE         4.743522527E+00 kcal/mol

Coordinates in bohr
s                   x[bohr]                   y[bohr]                   z[bohr]                      q[e]
local coordinates in angstrom
s                      x[a]                      y[a]                       z[a                      q[e]
x        0.5090323736394566        0.0004760787875568        0.1801430793693726        0.1979110000000000
x       -0.5470676167487909        0.0003816397461378        0.5595450565087958        0.1055000000000000
x       -0.0506120504473984        0.5500897577210289        0.0420959638845488       -0.3034110000000000
x       -0.0514832057369858       -0.5500897577210289        0.0412678656321077       -0.3034110000000000
x       -0.4838621613444047       -0.0004715164203049        0.1773161174223787        0.1979110000000000
x        0.5603856840416483        0.0011024854206312        0.5495013298168487        0.1055000000000000
