6
s                      x[A]                      y[A]                      z[A]                      q[e]
N        0.9900796844187826       -0.3462795376418265       -0.0001121031272130        0.1979110000000000
N        0.7488078605751420       -0.9087063925711893       -0.0012264850874586        0.1055000000000000
O       -0.0071925308275471        0.1099813472132767       -0.2910474658685001       -0.3034110000000000
O       -0.0083469332620916        0.1097069499554648        0.2910474658685001       -0.3034110000000000
N       -0.9958907598051460       -0.4327788018709802        0.0000257651659095        0.1979110000000000
N       -0.7262273014868552       -0.9831802449390021        0.0003206572964734        0.1055000000000000

        RMSE         7.285904182E-01 kcal/mol
         MAE         5.032951111E-01 kcal/mol
     max. AE         4.224271950E+00 kcal/mol

Coordinates in bohr
s                   x[bohr]                   y[bohr]                   z[bohr]                      q[e]
local coordinates in angstrom
s                      x[a]                      y[a]                       z[a                      q[e]
x        0.5500000000000000        0.0002118442082399        0.1929390085723274        0.1979110000000000
x       -0.5500000000000000        0.0023177209122550        0.5500000000000000        0.1055000000000000
x       -0.0426787011648743        0.5500000000000000        0.0193000818267106       -0.3034110000000000
x       -0.0445058347002173       -0.5500000000000000        0.0180003034214043       -0.3034110000000000
x       -0.5500000000000000       -0.0000486891071459        0.1873605086185686        0.1979110000000000
x        0.5500000000000000       -0.0006059544704644        0.5499990000000000        0.1055000000000000
