6
s                      x[A]                      y[A]                      z[A]                      q[e]
N        0.9050306350488873       -0.5163194065864865        0.0010447852797802        0.1979110000000000
N        0.6465746827460829       -1.0301615226686962       -0.0015210419899095        0.1055000000000000
O        0.0102602886441779        0.0775715986732630       -0.2912929648744950       -0.3034110000000000
O        0.0106334256335875        0.0785917160360409        0.2912929648744950       -0.3034110000000000
N       -0.9063743881185475       -0.4417522066020874       -0.0006304367151149        0.1979110000000000
N       -0.6588426800941705       -0.9574600813368512        0.0010850215364102        0.1055000000000000

        RMSE         7.649085817E-01 kcal/mol
         MAE         5.220956551E-01 kcal/mol
     max. AE         5.426825575E+00 kcal/mol

Coordinates in bohr
s                   x[bohr]                   y[bohr]                   z[bohr]                      q[e]
local coordinates in angstrom
s                      x[a]                      y[a]                       z[a                      q[e]
x        0.4733640397080308       -0.0019743580386944        0.1587787828852925        0.1979110000000000
x       -0.5316000927575715        0.0028743527862503        0.5728728491085349        0.1055000000000000
x       -0.0697349259039584        0.5504639258854027        0.1101033858694649       -0.3034110000000000
x       -0.0679397096409957       -0.5504639258854027        0.1091081004135788       -0.3034110000000000
x       -0.4765803832671054        0.0011913527310004        0.1725008760286073        0.1979110000000000
x        0.5338673736059718       -0.0020503935440388        0.5566136004053988        0.1055000000000000
