6
s                      x[A]                      y[A]                      z[A]                      q[e]
N        1.0986818136711667       -0.3180808854994079       -0.0005820606895671        0.1979110000000000
N        0.8644806651399649       -0.7892505283825145        0.0010186173263250        0.1055000000000000
O        0.0083719944826836        0.1567894086852567       -0.2910403249867911       -0.3034110000000000
O        0.0067815913159877        0.1557254839914892        0.2910403249867911       -0.3034110000000000
N       -1.0916001733144687       -0.2046820207257110       -0.0001734621258848        0.1979110000000000
N       -0.8766806857092958       -0.6851196887101839        0.0007418071254454        0.1055000000000000

        RMSE         7.208780583E-01 kcal/mol
         MAE         4.837602361E-01 kcal/mol
     max. AE         4.536757632E+00 kcal/mol

Coordinates in bohr
s                   x[bohr]                   y[bohr]                   z[bohr]                      q[e]
local coordinates in angstrom
s                      x[a]                      y[a]                       z[a                      q[e]
x        0.5476637111182754        0.0010999352916770        0.3414732603760058        0.1979110000000000
x       -0.4351393797542187       -0.0019249077734003        0.4923075753176818        0.1055000000000000
x        0.0949812443263909        0.5499865056892759       -0.0475412439823231       -0.3034110000000000
x        0.0916069342993069       -0.5499865056892759       -0.0488407961097437       -0.3034110000000000
x       -0.5450783831602166        0.0003277959110619        0.3540208718914073        0.1979110000000000
x        0.4435247226583670       -0.0014018123050050        0.4630493380172993        0.1055000000000000
