6
s                      x[A]                      y[A]                      z[A]                      q[e]
N        1.1706963472341001       -0.3488153729099467       -0.0006483515814856        0.1979110000000000
N        0.9457319998048487       -0.7762499091542382        0.0024199056520173        0.1055000000000000
O        0.0250295239012037        0.1616545658175736       -0.2910893393259926       -0.3034110000000000
O        0.0234235185725121        0.1599604510049805        0.2910893393259926       -0.3034110000000000
N       -1.1405366380617992       -0.1161880765621659       -0.0013020189287857        0.1979110000000000
N       -0.9688069965793104       -0.5289720481260642        0.0031228463510420        0.1055000000000000

        RMSE         8.053626883E-01 kcal/mol
         MAE         5.379140518E-01 kcal/mol
     max. AE         5.060828307E+00 kcal/mol

Coordinates in bohr
s                   x[bohr]                   y[bohr]                   z[bohr]                      q[e]
local coordinates in angstrom
s                      x[a]                      y[a]                       z[a                      q[e]
x        0.5532869110647880        0.0012252069220153        0.3920459927817319        0.1979110000000000
x       -0.3537310624335532       -0.0045729589317602        0.4944218612226905        0.1055000000000000
x        0.1342943081724570        0.5500791293665870       -0.0340734892160270       -0.3034110000000000
x        0.1299406316122713       -0.5500791293665870       -0.0347842816098023       -0.3034110000000000
x       -0.4918295793373773        0.0024604591855670        0.4174941294277232        0.1979110000000000
x        0.3529566681409051       -0.0059013243353547        0.4287468008678843        0.1055000000000000
