6
s                      x[A]                      y[A]                      z[A]                      q[e]
N        0.9461603666277514       -0.3417935722207586        0.0003078440807452        0.1979110000000000
N        0.6887672277315854       -0.8921325242575834       -0.0017383463525611        0.1055000000000000
O       -0.0044631522363831        0.1163043982860393       -0.2910964237704791       -0.3034110000000000
O       -0.0049175852447352        0.1160520381941113        0.2910964237704791       -0.3034110000000000
N       -0.9452653095453345       -0.4337829521893095       -0.0000994254926722        0.1979110000000000
N       -0.6619891150800983       -0.9657379739665545        0.0003874014297346        0.1055000000000000

        RMSE         7.036132559E-01 kcal/mol
         MAE         4.820260659E-01 kcal/mol
     max. AE         4.095098618E+00 kcal/mol

Coordinates in bohr
s                   x[bohr]                   y[bohr]                   z[bohr]                      q[e]
local coordinates in angstrom
s                      x[a]                      y[a]                       z[a                      q[e]
x        0.5407095884570481       -0.0005817410019517        0.2049946435163292        0.1979110000000000
x       -0.5565951153612332        0.0032849985175289        0.5427649793855380        0.1055000000000000
x       -0.0238399971667604        0.5500925170264175        0.0102171128901318       -0.3034110000000000
x       -0.0247699841120266       -0.5500925170264175        0.0099008723896077       -0.3034110000000000
x       -0.5238964110631059        0.0001878869510392        0.1998556425878633        0.1979110000000000
x        0.5632471539192920       -0.0007320826028092        0.5392765653014067        0.1055000000000000
