6
s                      x[A]                      y[A]                      z[A]                      q[e]
N        0.9948430170437881       -0.4015940160535332       -0.0004158852625280        0.1979110000000000
N        0.7100756823902030       -0.9260307041713872        0.0002172477882140        0.1055000000000000
O        0.0076030311835872        0.1265558143696145       -0.2914166591605091       -0.3034110000000000
O        0.0070298402079796        0.1261679965422843        0.2914166591605091       -0.3034110000000000
N       -0.9916611895017197       -0.3059295888034551       -0.0002532710033175        0.1979110000000000
N       -0.7343617915906122       -0.8479273480174214        0.0000299336050505        0.1055000000000000

        RMSE         6.947590468E-01 kcal/mol
         MAE         4.726132380E-01 kcal/mol
     max. AE         4.225182928E+00 kcal/mol

Coordinates in bohr
s                   x[bohr]                   y[bohr]                   z[bohr]                      q[e]
local coordinates in angstrom
s                      x[a]                      y[a]                       z[a                      q[e]
x        0.5424101138182778        0.0007859092457920        0.2418554616929214        0.1979110000000000
x       -0.5515679842906138       -0.0004105388210860        0.5156472353328354        0.1055000000000000
x        0.0159807741897566        0.5506976742092533        0.0048331387460792       -0.3034110000000000
x        0.0147083857873440       -0.5506976742092533        0.0045308288731292       -0.3034110000000000
x       -0.5506972373711960        0.0004786128317900        0.2475904265684221        0.1979110000000000
x        0.5512810315744900       -0.0000565663154930        0.5142374651522914        0.1055000000000000
