6
s                      x[A]                      y[A]                      z[A]                      q[e]
N        1.0831367993562584       -0.4108244514060723       -0.0009656529514027        0.1979110000000000
N        0.8166249998333898       -0.9027007273412989        0.0011043279799307        0.1055000000000000
O        0.0142855221639766        0.1387235475408609       -0.2910436175715629       -0.3034110000000000
O        0.0134992594196637        0.1382560379910964        0.2910436175715629       -0.3034110000000000
N       -1.0688406050640162       -0.2021487041570829       -0.0002755177152140        0.1979110000000000
N       -0.8492318887355516       -0.7209684387422992        0.0004074169965924        0.1055000000000000

        RMSE         7.222260681E-01 kcal/mol
         MAE         4.889645332E-01 kcal/mol
     max. AE         4.438619755E+00 kcal/mol

Coordinates in bohr
s                   x[bohr]                   y[bohr]                   z[bohr]                      q[e]
local coordinates in angstrom
s                      x[a]                      y[a]                       z[a                      q[e]
x        0.5548964720906042        0.0018248196103912        0.2976520586180413        0.1979110000000000
x       -0.4811987219154616       -0.0020868774347491        0.5077610815787921        0.1055000000000000
x        0.0554468582390655        0.5499927277727394       -0.0111871527014955       -0.3034110000000000
x        0.0538158797253345       -0.5499927277727394       -0.0117599391337535       -0.3034110000000000
x       -0.5533397581511963        0.0005206530244664        0.3137022109240206        0.1979110000000000
x        0.4990686467017440       -0.0007699065424163        0.4746348989719991        0.1055000000000000
