6
s                      x[A]                      y[A]                      z[A]                      q[e]
N        1.1398546375838527       -0.3761588530355998       -0.0008963775332784        0.1979110000000000
N        0.8832131394039255       -0.8325008683937410        0.0018495238728079        0.1055000000000000
O        0.0218020704324661        0.1508369460711823       -0.2911257374732709       -0.3034110000000000
O        0.0200179854773046        0.1493138781757909        0.2911257374732709       -0.3034110000000000
N       -1.1134570928325718       -0.1586065878242507       -0.0009075546340521        0.1979110000000000
N       -0.9154678885423847       -0.6143474877517308        0.0020745584983935        0.1055000000000000

        RMSE         7.647656574E-01 kcal/mol
         MAE         5.101160549E-01 kcal/mol
     max. AE         4.847854290E+00 kcal/mol

Coordinates in bohr
s                   x[bohr]                   y[bohr]                   z[bohr]                      q[e]
local coordinates in angstrom
s                      x[a]                      y[a]                       z[a                      q[e]
x        0.5592944979434833        0.0016939080429097        0.3606967922492004        0.1979110000000000
x       -0.4222125246883479       -0.0034950935821030        0.4852715809902293        0.1055000000000000
x        0.0996377063011096        0.5501479118964170       -0.0226504866736548       -0.3034110000000000
x        0.0953171572546125       -0.5501479118964170       -0.0236421198252685       -0.3034110000000000
x       -0.5162098318351127        0.0017150297022486        0.3803865556174060        0.1979110000000000
x        0.4210424964721824       -0.0039203473932048        0.4374143424474823        0.1055000000000000
