6
s                      x[A]                      y[A]                      z[A]                      q[e]
N        1.0324723493495853       -0.2661827055764868        0.0003614024608514        0.1979110000000000
N        0.7873280651712247       -0.7950002856022804       -0.0023651236270900        0.1055000000000000
O       -0.0055498937160113        0.1380119215650541       -0.2910685037244186       -0.3034110000000000
O       -0.0062138790190838        0.1373375395666766        0.2910685037244186       -0.3034110000000000
N       -1.0383368134208650       -0.3664646914500001       -0.0009720747057536        0.1979110000000000
N       -0.7655681107935676       -0.8831065133230069        0.0023632885564888        0.1055000000000000

        RMSE         6.957376284E-01 kcal/mol
         MAE         4.729912572E-01 kcal/mol
     max. AE         4.171516249E+00 kcal/mol

Coordinates in bohr
s                   x[bohr]                   y[bohr]                   z[bohr]                      q[e]
local coordinates in angstrom
s                      x[a]                      y[a]                       z[a                      q[e]
x        0.5577358190439554       -0.0006829516720757        0.2855319801656151        0.1979110000000000
x       -0.5237730591870786        0.0044694359080495        0.4943034189054742        0.1055000000000000
x        0.0299112425545900        0.5500397557859529       -0.0345005782783119       -0.3034110000000000
x        0.0281436639888852       -0.5500397557859529       -0.0347728886617915       -0.3034110000000000
x       -0.5560168492975208        0.0018369549673594        0.2774962478815723        0.1979110000000000
x        0.5242039298618693       -0.0044659681271924        0.5055409921224054        0.1055000000000000
