6
s                      x[A]                      y[A]                      z[A]                      q[e]
N       -0.0002774605360991        1.0670958852099144       -0.2625152811598138        0.1979110000000000
N       -0.0003054819017334        0.8285233021317145       -0.7488184919818284        0.1055000000000000
O       -0.2910260034479360        0.0014433315541464        0.1580610268151022       -0.3034110000000000
O        0.2910260034479360        0.0002566571310383        0.1569114144247596       -0.3034110000000000
N       -0.0013952616526526       -1.0671205451159727       -0.2631675438852806        0.1979110000000000
N        0.0026639810952618       -0.8263868261489444       -0.7494180154933475        0.1055000000000000

        RMSE         6.956388185E-01 kcal/mol
         MAE         4.652773837E-01 kcal/mol
     max. AE         4.327426863E+00 kcal/mol

Coordinates in bohr
s                   x[bohr]                   y[bohr]                   z[bohr]                      q[e]
local coordinates in angstrom
s                      x[a]                      y[a]                       z[a                      q[e]
x        0.5499345653925047        0.0005243244238500        0.3403910253000504        0.1979110000000000
x       -0.4645815237836359        0.0005772771305601        0.4765342884129495        0.1055000000000000
x        0.0910395202254222        0.5499594419031446       -0.0576068240411587       -0.3034110000000000
x        0.0879870448770816       -0.5499594419031446       -0.0582631046845563       -0.3034110000000000
x       -0.5489359032108041        0.0026366623968670        0.3411150025549432        0.1979110000000000
x        0.4677677483805383       -0.0050341946734420        0.4738081654722919        0.1055000000000000
