6
s                      x[A]                      y[A]                      z[A]                      q[e]
N        1.0561210935832639       -0.4284221195889283       -0.0009778072420664        0.1979110000000000
N        0.7767214529784766       -0.9342163738036665        0.0012257143782576        0.1055000000000000
O        0.0141388649195230        0.1308005197911054       -0.2910344288211838       -0.3034110000000000
O        0.0134064968581222        0.1304753341983454        0.2910344288211838       -0.3034110000000000
N       -1.0454425424965330       -0.2313632993884632       -0.0000739063338469        0.1979110000000000
N       -0.8085635357848913       -0.7641396104571909       -0.0000960199607396        0.1055000000000000

        RMSE         7.140025987E-01 kcal/mol
         MAE         4.868608366E-01 kcal/mol
     max. AE         4.318207976E+00 kcal/mol

Coordinates in bohr
s                   x[bohr]                   y[bohr]                   z[bohr]                      q[e]
local coordinates in angstrom
s                      x[a]                      y[a]                       z[a                      q[e]
x        0.5541352770055710        0.0018477878909948        0.2707309377110505        0.1979110000000000
x       -0.5110652942967135       -0.0023162644829426        0.5109343381955114        0.1055000000000000
x        0.0361755055996582        0.5499753635510878        0.0035978337868983       -0.3034110000000000
x        0.0347968567766657       -0.5499753635510878        0.0029714640645579       -0.3034110000000000
x       -0.5552074651113799        0.0001396627299073        0.2897236718836211        0.1979110000000000
x        0.5300301331026276        0.0001814514283751        0.4802141718537314        0.1055000000000000
