6
s                      x[A]                      y[A]                      z[A]                      q[e]
N        1.0039150950352973       -0.2742107878552287        0.0001540489775493        0.1979110000000000
N        0.7595360931755279       -0.8220834524567850       -0.0017911450282001        0.1055000000000000
O       -0.0130198522808618        0.1179443441174246       -0.2910440407189767       -0.3034110000000000
O       -0.0142978366527216        0.1180606583935375        0.2910440407189767       -0.3034110000000000
N       -1.0135068267946259       -0.4586073113181602        0.0003732882594633        0.1979110000000000
N       -0.7148219743824835       -0.9797432509567212        0.0002092206040551        0.1055000000000000

        RMSE         7.090703251E-01 kcal/mol
         MAE         4.857388024E-01 kcal/mol
     max. AE         4.092624554E+00 kcal/mol

Coordinates in bohr
s                   x[bohr]                   y[bohr]                   z[bohr]                      q[e]
local coordinates in angstrom
s                      x[a]                      y[a]                       z[a                      q[e]
x        0.5493195914859825       -0.0002911103774750        0.2489242552878750        0.1979110000000000
x       -0.5540388219351371        0.0033847735542736        0.5092602939002973        0.1055000000000000
x       -0.0262572769354392        0.5499935274054621       -0.0109224608788452       -0.3034110000000000
x       -0.0275464670110068       -0.5499935274054621       -0.0129764137325310       -0.3034110000000000
x       -0.5452243553452263       -0.0007054125762345        0.2355217599451862        0.1979110000000000
x        0.5541243388865951       -0.0003953696414669        0.5181095971593095        0.1055000000000000
