6
s                      x[A]                      y[A]                      z[A]                      q[e]
N       -0.0005334050523382        0.9107396532887101       -0.4486828030057903        0.1979110000000000
N        0.0009285765080669        0.6440363942911369       -0.9704412800876849        0.1055000000000000
O       -0.2910474658685001        0.0007153845321034        0.0925373112054746       -0.3034110000000000
O        0.2910474658685001        0.0001207858948007        0.0931800682757751       -0.3034110000000000
N        0.0010335729688151       -0.9092916205718586       -0.4500902216968964        0.1979110000000000
N       -0.0027168557144784       -0.6440360318761190       -0.9704408944922038        0.1055000000000000

        RMSE         7.363871322E-01 kcal/mol
         MAE         5.052323392E-01 kcal/mol
     max. AE         4.820141055E+00 kcal/mol

Coordinates in bohr
s                   x[bohr]                   y[bohr]                   z[bohr]                      q[e]
local coordinates in angstrom
s                      x[a]                      y[a]                       z[a                      q[e]
x        0.4925105234778607        0.0010079894628547        0.1767150054401744        0.1979110000000000
x       -0.5500000000000000       -0.0017547552867803        0.5500000000000000        0.1055000000000000
x       -0.0601294301484365        0.5500000000000000        0.0659493119976697       -0.3034110000000000
x       -0.0601163233854997       -0.5500000000000000        0.0642947101839293       -0.3034110000000000
x       -0.4886951101720824       -0.0019531698417369        0.1767789470862314        0.1979110000000000
x        0.5500000000000000        0.0051341132227492        0.5499990000000000        0.1055000000000000
