6
s                      x[A]                      y[A]                      z[A]                      q[e]
N        1.0839079075812237       -0.3254471432727332       -0.0002531375338518        0.1979110000000000
N        0.8591608214634441       -0.8035616560885022       -0.0016452614784117        0.1055000000000000
O        0.0095212191737378        0.1530159167896755       -0.2910474658685001       -0.3034110000000000
O        0.0078424949670816        0.1523616596112839        0.2910474658685001       -0.3034110000000000
N       -1.0827830522789506       -0.2178745450052529       -0.0011173623510060        0.1979110000000000
N       -0.8502052919852692       -0.7146633287363391        0.0030353478517906        0.1055000000000000

        RMSE         7.139645477E-01 kcal/mol
         MAE         4.805536359E-01 kcal/mol
     max. AE         4.428578055E+00 kcal/mol

Coordinates in bohr
s                   x[bohr]                   y[bohr]                   z[bohr]                      q[e]
local coordinates in angstrom
s                      x[a]                      y[a]                       z[a                      q[e]
x        0.5500000000000000        0.0004783606110538        0.3211462565330822        0.1979110000000000
x       -0.4303704989693891        0.0031090935989639        0.5097591026922048        0.1055000000000000
x        0.0855703746405942        0.5500000000000000       -0.0400643111073896       -0.3034110000000000
x        0.0827033407314655       -0.5500000000000000       -0.0419007181587602       -0.3034110000000000
x       -0.5500000000000000        0.0021115088262990        0.3447855619120619        0.1979110000000000
x        0.4801304878295317       -0.0057359761353810        0.4602596612682660        0.1055000000000000
