6
s                      x[A]                      y[A]                      z[A]                      q[e]
N        0.9448645239083501       -0.4850267471897906        0.0007055467798873        0.1979110000000000
N        0.6748004745631569       -1.0145887770008699       -0.0013684925556110        0.1055000000000000
O        0.0091069511893735        0.0882150186009881       -0.2912997234563809       -0.3034110000000000
O        0.0093515220964976        0.0889956389460870        0.2912997234563809       -0.3034110000000000
N       -0.9436554472973993       -0.4051888099663504       -0.0002994680078904        0.1979110000000000
N       -0.6902958922385870       -0.9416769654228093        0.0001451755722669        0.1055000000000000

        RMSE         7.482886581E-01 kcal/mol
         MAE         5.119649710E-01 kcal/mol
     max. AE         4.909349787E+00 kcal/mol

Coordinates in bohr
s                   x[bohr]                   y[bohr]                   z[bohr]                      q[e]
local coordinates in angstrom
s                      x[a]                      y[a]                       z[a                      q[e]
x        0.5059096999348185       -0.0013332901826857        0.1746228214155963        0.1979110000000000
x       -0.5485397963964260        0.0025860761348326        0.5619796929659060        0.1055000000000000
x       -0.0552504783518089        0.5504766977541635        0.0849724950849549       -0.3034110000000000
x       -0.0539089717829029       -0.5504766977541635        0.0842043439369604       -0.3034110000000000
x       -0.5086903628453001        0.0005659125182493        0.1844554742619948        0.1979110000000000
x        0.5509041335085385       -0.0002743420716911        0.5509417559060239        0.1055000000000000
