6
s                      x[A]                      y[A]                      z[A]                      q[e]
N        1.1507508284734336       -0.3670438783757725       -0.0008356570773250        0.1979110000000000
N        0.9039758334202268       -0.8139727344008034        0.0020453775846169        0.1055000000000000
O        0.0228974911536305        0.1544696653983396       -0.2911191206630578       -0.3034110000000000
O        0.0211420466829921        0.1528736817682572        0.2911191206630578       -0.3034110000000000
N       -1.1229946168215685       -0.1448625382056816       -0.0010382406786287        0.1979110000000000
N       -0.9334667689511628       -0.5866967319294342        0.0024197830303025        0.1055000000000000

        RMSE         7.765970855E-01 kcal/mol
         MAE         5.178663740E-01 kcal/mol
     max. AE         4.917941775E+00 kcal/mol

Coordinates in bohr
s                   x[bohr]                   y[bohr]                   z[bohr]                      q[e]
local coordinates in angstrom
s                      x[a]                      y[a]                       z[a                      q[e]
x        0.5576379278973036        0.0015791630109447        0.3718510130888717        0.1979110000000000
x       -0.4001958919459412       -0.0038652034580764        0.4873001233863761        0.1055000000000000
x        0.1110849998362937        0.5501354079372902       -0.0267181921295077       -0.3034110000000000
x        0.1066987182500725       -0.5501354079372902       -0.0276461800415859       -0.3034110000000000
x       -0.5085111116991357        0.0019619905349177        0.3932736357442081        0.1979110000000000
x        0.3991068024461129       -0.0045727272103022        0.4337635407418929        0.1055000000000000
