6
s                      x[A]                      y[A]                      z[A]                      q[e]
N        1.0442048553385288       -0.2532696038389787        0.0003057037400276        0.1979110000000000
N        0.8065275500788900       -0.7753996072491376       -0.0025008022468444        0.1055000000000000
O       -0.0057694612589336        0.1423655333945577       -0.2910663850769115       -0.3034110000000000
O       -0.0063202176141731        0.1415051986013609        0.2910663850769115       -0.3034110000000000
N       -1.0499134852722241       -0.3548533744435778       -0.0013233719918282        0.1979110000000000
N       -0.7882838923652227       -0.8676829363661168        0.0026784314425648        0.1055000000000000

        RMSE         6.994124671E-01 kcal/mol
         MAE         4.738159259E-01 kcal/mol
     max. AE         4.216037048E+00 kcal/mol

Coordinates in bohr
s                   x[bohr]                   y[bohr]                   z[bohr]                      q[e]
local coordinates in angstrom
s                      x[a]                      y[a]                       z[a                      q[e]
x        0.5568371182180272       -0.0005776963441804        0.2971589242715709        0.1979110000000000
x       -0.5099665929074035        0.0047258313404654        0.4900419243203942        0.1055000000000000
x        0.0411016307557475        0.5500357521224082       -0.0417507333036156       -0.3034110000000000
x        0.0391725267591028       -0.5500357521224082       -0.0416800626439908       -0.3034110000000000
x       -0.5567555257885033        0.0025008106266569        0.2864371433170163        0.1979110000000000
x        0.5082039035560229       -0.0050615018722624        0.5088560087569931        0.1055000000000000
