6
s                      x[A]                      y[A]                      z[A]                      q[e]
N        1.0596996780703358       -0.3099160248999250        0.0007677959059987        0.1979110000000000
N        0.7942189334391014       -0.8386391689492876       -0.0042940061046389        0.1055000000000000
O       -0.0062863397244003        0.1159257693972922       -0.2910474658685001       -0.3034110000000000
O       -0.0076543785919937        0.1160043012391681        0.2910474658685001       -0.3034110000000000
N       -1.0635002642222529       -0.4045384731673900       -0.0009407133315248        0.1979110000000000
N       -0.7787568760269646       -0.9202481798274916        0.0035660825325499        0.1055000000000000

        RMSE         7.280946669E-01 kcal/mol
         MAE         4.974168905E-01 kcal/mol
     max. AE         4.370108750E+00 kcal/mol

Coordinates in bohr
s                   x[bohr]                   y[bohr]                   z[bohr]                      q[e]
local coordinates in angstrom
s                      x[a]                      y[a]                       z[a                      q[e]
x        0.5500000000000000       -0.0014509239825854        0.2800984203367708        0.1979110000000000
x       -0.5500000000000000        0.0081144955188116        0.4800317951121253        0.1055000000000000
x       -0.0182935343605840        0.5500000000000000       -0.0011006634251219       -0.3034110000000000
x       -0.0197294642344544       -0.5500000000000000       -0.0032555381855627       -0.3034110000000000
x       -0.5500000000000000        0.0017776905591488        0.2684620324692470        0.1979110000000000
x        0.5401741000872174       -0.0067389193272984        0.4938638538093829        0.1055000000000000
