6
s                      x[A]                      y[A]                      z[A]                      q[e]
N        0.9683475942842905       -0.2917344544380290        0.0002946048841090        0.1979110000000000
N        0.7400011974292929       -0.8580829928381042       -0.0019217280007583        0.1055000000000000
O       -0.0150853911160922        0.1171375870642429       -0.2910474658685001       -0.3034110000000000
O       -0.0161333004679216        0.1172836318730977        0.2910474658685001       -0.3034110000000000
N       -0.9803410293771506       -0.4657414014591247       -0.0004381757070382        0.1979110000000000
N       -0.6937193567299664       -1.0068962708132771        0.0014174562841332        0.1055000000000000

        RMSE         7.131768605E-01 kcal/mol
         MAE         4.906985817E-01 kcal/mol
     max. AE         4.115331722E+00 kcal/mol

Coordinates in bohr
s                   x[bohr]                   y[bohr]                   z[bohr]                      q[e]
local coordinates in angstrom
s                      x[a]                      y[a]                       z[a                      q[e]
x        0.5500000000000000       -0.0005567225461882        0.2012534403960688        0.1979110000000000
x       -0.5500000000000000        0.0036315396090567        0.5500000000000000        0.1055000000000000
x       -0.0375675526783299        0.5500000000000000       -0.0059478748402423       -0.3034110000000000
x       -0.0386156731785535       -0.5500000000000000       -0.0076505337270767       -0.3034110000000000
x       -0.5500000000000000        0.0008280320811310        0.1906226410306225        0.1979110000000000
x        0.5500000000000000       -0.0026786041718209        0.5499990000000000        0.1055000000000000
