6
s                      x[A]                      y[A]                      z[A]                      q[e]
N        0.0004555883835393        0.9564431162209033       -0.4530390024202876        0.1979110000000000
N       -0.0016225820888402        0.7023572102537743       -0.9936528312111579        0.1055000000000000
O       -0.2910189345855092        0.0011271072855742        0.0833586852274038       -0.3034110000000000
O        0.2910189345855092        0.0001561999052291        0.0840096187582715       -0.3034110000000000
N       -0.0001138141877522       -0.9553459334310155       -0.4536887201650396        0.1979110000000000
N        0.0003871509659542       -0.7033214044849524       -0.9934835308775010        0.1055000000000000

        RMSE         7.624392136E-01 kcal/mol
         MAE         5.264258243E-01 kcal/mol
     max. AE         4.899076431E+00 kcal/mol

Coordinates in bohr
s                   x[bohr]                   y[bohr]                   z[bohr]                      q[e]
local coordinates in angstrom
s                      x[a]                      y[a]                       z[a                      q[e]
x        0.5074777530644496       -0.0008609372708293        0.1632306484079891        0.1979110000000000
x       -0.5491545536078775        0.0030662357639812        0.5604284447254031        0.1055000000000000
x       -0.0792066822555171        0.5499460836891394        0.0844326999772420       -0.3034110000000000
x       -0.0796635173055620       -0.5499460836891394        0.0822715156732556       -0.3034110000000000
x       -0.5051356040376049        0.0002150776440430        0.1626643564413826        0.1979110000000000
x        0.5476257066884500       -0.0007316092948599        0.5614700285150320        0.1055000000000000
