6
s                      x[A]                      y[A]                      z[A]                      q[e]
N        0.9398809116321424       -0.4989048465369138        0.0012044350321865        0.1979110000000000
N        0.6580020329667596       -1.0231133669704280       -0.0024666779859815        0.1055000000000000
O        0.0117658658615900        0.1065491790056160       -0.2910474658685001       -0.3034110000000000
O        0.0118231347971702        0.1076663728922730        0.2910474658685001       -0.3034110000000000
N       -0.9445245024651352       -0.3231212959837881       -0.0001540872299315        0.1979110000000000
N       -0.7012002457129365       -0.8811587987930030       -0.0002245258228606        0.1055000000000000

        RMSE         7.248997726E-01 kcal/mol
         MAE         4.986122581E-01 kcal/mol
     max. AE         4.412893787E+00 kcal/mol

Coordinates in bohr
s                   x[bohr]                   y[bohr]                   z[bohr]                      q[e]
local coordinates in angstrom
s                      x[a]                      y[a]                       z[a                      q[e]
x        0.5101319541074349       -0.0022760523467395        0.1742727875775568        0.1979110000000000
x       -0.5500000000000000        0.0046613458332009        0.5500000000000000        0.1055000000000000
x       -0.0200095781802632        0.5500000000000000        0.0551440457364117       -0.3034110000000000
x       -0.0185108351527345       -0.5500000000000000        0.0536532048024570       -0.3034110000000000
x       -0.5428228956924057        0.0002911826640009        0.1905277831411031        0.1979110000000000
x        0.5500000000000000        0.0004242923132995        0.5499990000000000        0.1055000000000000
