6
s                      x[A]                      y[A]                      z[A]                      q[e]
N        1.0227354329090645       -0.3272295709223664       -0.0003351454435853        0.1979110000000000
N        0.7767043376607631       -0.8773193709737047       -0.0010048069226945        0.1055000000000000
O       -0.0063785288994188        0.1122965479393675       -0.2910474658685001       -0.3034110000000000
O       -0.0080307813989797        0.1128399920375984        0.2910474658685001       -0.3034110000000000
N       -1.0286324859444713       -0.4182209955996294       -0.0000542311676750        0.1979110000000000
N       -0.7545068782993062       -0.9564072831675433        0.0013224637261435        0.1055000000000000

        RMSE         7.245245207E-01 kcal/mol
         MAE         4.981851121E-01 kcal/mol
     max. AE         4.172381111E+00 kcal/mol

Coordinates in bohr
s                   x[bohr]                   y[bohr]                   z[bohr]                      q[e]
local coordinates in angstrom
s                      x[a]                      y[a]                       z[a                      q[e]
x        0.5500000000000000        0.0006333331005713        0.2309697384511340        0.1979110000000000
x       -0.5500000000000000        0.0018988098928566        0.5255220861159701        0.1055000000000000
x       -0.0314895160330013        0.5500000000000000        0.0100500695685445       -0.3034110000000000
x       -0.0326610422635573       -0.5500000000000000        0.0069790826084119       -0.3034110000000000
x       -0.5500000000000000        0.0001024820543696        0.2248672448312942        0.1979110000000000
x        0.5500000000000000       -0.0024990942532636        0.5293115623853352        0.1055000000000000
