6
s                      x[A]                      y[A]                      z[A]                      q[e]
N        0.0002771591453362        0.9765508861138825       -0.3814309180551577        0.1979110000000000
N       -0.0001520170480934        0.7188259090259422       -0.9313104104325983        0.1055000000000000
O       -0.2910474658685001        0.0002976569367770        0.1133962944075145       -0.3034110000000000
O        0.2910474658685001       -0.0003663959503290        0.1135302568696556       -0.3034110000000000
N        0.0004511605991156       -0.9778212646565838       -0.3840767234511693        0.1979110000000000
N        0.0003900605927829       -0.7176107305523240       -0.9301861275576455        0.1055000000000000

        RMSE         7.148396168E-01 kcal/mol
         MAE         4.940694217E-01 kcal/mol
     max. AE         4.141812997E+00 kcal/mol

Coordinates in bohr
s                   x[bohr]                   y[bohr]                   z[bohr]                      q[e]
local coordinates in angstrom
s                      x[a]                      y[a]                       z[a                      q[e]
x        0.5434946950946252       -0.0005237548778514        0.1990092860301332        0.1979110000000000
x       -0.5500000000000000        0.0002872705872971        0.5472060594203975        0.1055000000000000
x       -0.0230033900023498        0.5500000000000000        0.0220490395028370       -0.3034110000000000
x       -0.0236697835771898       -0.5500000000000000        0.0209560048545001       -0.3034110000000000
x       -0.5414550190770276       -0.0008525699709260        0.2041669407405421        0.1979110000000000
x        0.5500000000000000       -0.0007371076926934        0.5440776232670622        0.1055000000000000
