6
s                      x[A]                      y[A]                      z[A]                      q[e]
N        0.0001409216421233        1.0672087007708730       -0.3111559269610358        0.1979110000000000
N       -0.0014012302619219        0.8298453696362181       -0.8322863952140229        0.1055000000000000
O       -0.2916942898827617        0.0036448142583781        0.1380004679662401       -0.3034110000000000
O        0.2916942898827617        0.0029460227471225        0.1376677858870523       -0.3034110000000000
N       -0.0007712072623203       -1.0655194263025851       -0.3104847692736333        0.1979110000000000
N        0.0008729888787812       -0.8318645981288004       -0.8351105835900424        0.1055000000000000

        RMSE         7.136040052E-01 kcal/mol
         MAE         4.805179253E-01 kcal/mol
     max. AE         4.448626526E+00 kcal/mol

Coordinates in bohr
s                   x[bohr]                   y[bohr]                   z[bohr]                      q[e]
local coordinates in angstrom
s                      x[a]                      y[a]                       z[a                      q[e]
x        0.5625757631778470       -0.0002663033087629        0.2850657361764206        0.1979110000000000
x       -0.4947731791803562        0.0026479414337359        0.5153498626359578        0.1055000000000000
x        0.0392022310552420        0.5512223202383240       -0.0207013958247160       -0.3034110000000000
x        0.0379081005689841       -0.5512223202383240       -0.0213827529163666       -0.3034110000000000
x       -0.5616805380111600        0.0014573705117495        0.2817494535720471        0.1979110000000000
x        0.4967636162493818       -0.0016497098914670        0.5216013712997665        0.1055000000000000
