6
s                      x[A]                      y[A]                      z[A]                      q[e]
N       -0.0004344371107352        1.1201983033156278       -0.2505177438754953        0.1979110000000000
N        0.0007111501464965        0.9354122688261862       -0.7261194472674690        0.1055000000000000
O       -0.2910474658685001        0.0004144520509299        0.1591916918316978       -0.3034110000000000
O        0.2910474658685001        0.0000991319832009        0.1575797233870733       -0.3034110000000000
N       -0.0022284227626580       -1.1184300448473234       -0.2494224449379036        0.1979110000000000
N        0.0030129380753566       -0.9368525351322347       -0.7275292893392182        0.1055000000000000

        RMSE         7.417593523E-01 kcal/mol
         MAE         5.010466703E-01 kcal/mol
     max. AE         4.498216485E+00 kcal/mol

Coordinates in bohr
s                   x[bohr]                   y[bohr]                   z[bohr]                      q[e]
local coordinates in angstrom
s                      x[a]                      y[a]                       z[a                      q[e]
x        0.5500000000000000        0.0008209671580247        0.3371446741791673        0.1979110000000000
x       -0.3979343616017093       -0.0013438790109577        0.5135580317810990        0.1055000000000000
x        0.0938992890250122        0.5500000000000000       -0.0572420447415309       -0.3034110000000000
x        0.0909958883456346       -0.5500000000000000       -0.0561445340873112       -0.3034110000000000
x       -0.5500000000000000        0.0042111087131596        0.3332140357644504        0.1979110000000000
x        0.3987660601844024       -0.0056936277953880        0.5172747534944691        0.1055000000000000
