6
s                      x[A]                      y[A]                      z[A]                      q[e]
N        0.9030092753479340       -0.5324569081361309        0.0007591763527155        0.1979110000000000
N        0.6213453809751092       -1.0385310558534715       -0.0019874200555495        0.1055000000000000
O        0.0118848958859065        0.0934088755146547       -0.2910474658685001       -0.3034110000000000
O        0.0116731897870321        0.0936985409266065        0.2910474658685001       -0.3034110000000000
N       -0.9125306976618305       -0.3645176825875032       -0.0005924240044404        0.1979110000000000
N       -0.6616171236963037       -0.9027069882235872        0.0008242414394237        0.1055000000000000

        RMSE         7.364336240E-01 kcal/mol
         MAE         5.052320968E-01 kcal/mol
     max. AE         4.809299863E+00 kcal/mol

Coordinates in bohr
s                   x[bohr]                   y[bohr]                   z[bohr]                      q[e]
local coordinates in angstrom
s                      x[a]                      y[a]                       z[a                      q[e]
x        0.4752969841174371       -0.0014346353875562        0.1670325713135815        0.1979110000000000
x       -0.5500000000000000        0.0037556796012308        0.5500000000000000        0.1055000000000000
x       -0.0398977881494466        0.5500000000000000        0.0814862755014488       -0.3034110000000000
x       -0.0398474500428170       -0.5500000000000000        0.0808101444021191       -0.3034110000000000
x       -0.5111621658381824        0.0011195191185393        0.1851546183037191        0.1979110000000000
x        0.5500000000000000       -0.0015575905817639        0.5499990000000000        0.1055000000000000
