6
s                      x[A]                      y[A]                      z[A]                      q[e]
N        1.1187139250339169       -0.3511260961640794       -0.0004974920707251        0.1979110000000000
N        0.8763250228178999       -0.8517454969709234       -0.0000054538482566        0.1055000000000000
O        0.0109526368204427        0.1378577185588186       -0.2914497525351332       -0.3034110000000000
O        0.0097211466703181        0.1373638344833218        0.2914497525351332       -0.3034110000000000
N       -1.1042847550286474       -0.2487916129846626       -0.0006241201839287        0.1979110000000000
N       -0.8972439256336714       -0.7554293142090638        0.0005699665913172        0.1055000000000000

        RMSE         7.406324093E-01 kcal/mol
         MAE         4.977838311E-01 kcal/mol
     max. AE         4.612238142E+00 kcal/mol

Coordinates in bohr
s                   x[bohr]                   y[bohr]                   z[bohr]                      q[e]
local coordinates in angstrom
s                      x[a]                      y[a]                       z[a                      q[e]
x        0.5678302518085729        0.0009401237632574        0.3099837427157581        0.1979110000000000
x       -0.4638236921352927        0.0000103062795347        0.5111756792184678        0.1055000000000000
x        0.0510242275204291        0.5507602116238601       -0.0123969421092198       -0.3034110000000000
x        0.0488812620244516       -0.5507602116238601       -0.0136986797598979       -0.3034110000000000
x       -0.5523617948203992        0.0011794162169956        0.3126738099622344        0.1979110000000000
x        0.4647424665533890       -0.0010770807582503        0.5002985787587022        0.1055000000000000
