6
s                      x[A]                      y[A]                      z[A]                      q[e]
N        0.9144289736401598       -0.3722456569164962        0.0003295446966528        0.1979110000000000
N        0.6576468005520807       -0.9150971724750746       -0.0012011527949940        0.1055000000000000
O       -0.0028038088894778        0.1062108004608758       -0.2910996404248301       -0.3034110000000000
O       -0.0031058581012465        0.1061527474047065        0.2910996404248301       -0.3034110000000000
N       -0.9098035705748494       -0.4656590158362996        0.0000473474835280        0.1979110000000000
N       -0.6262795545239557       -0.9818855066451128        0.0001664803997973        0.1055000000000000

        RMSE         7.138493657E-01 kcal/mol
         MAE         4.893631137E-01 kcal/mol
     max. AE         4.517074436E+00 kcal/mol

Coordinates in bohr
s                   x[bohr]                   y[bohr]                   z[bohr]                      q[e]
local coordinates in angstrom
s                      x[a]                      y[a]                       z[a                      q[e]
x        0.5217458722449919       -0.0006227492227708        0.1871564837183541        0.1979110000000000
x       -0.5514571927014913        0.0022698498173668        0.5560059221097617        0.1055000000000000
x       -0.0411688327194497        0.5500985956221811        0.0327496189647718       -0.3034110000000000
x       -0.0416458954941845       -0.5500985956221811        0.0324175832579385       -0.3034110000000000
x       -0.4940184013821636       -0.0000894737765975        0.1866509065603168        0.1979110000000000
x        0.5615004156306895       -0.0003146023608736        0.5396317665436072        0.1055000000000000
