6
s                      x[A]                      y[A]                      z[A]                      q[e]
N        1.0108269911064496       -0.4555104324510121       -0.0006978716096983        0.1979110000000000
N        0.7222739473215907       -0.9775036692079343        0.0008239329695691        0.1055000000000000
O        0.0137828544150652        0.1200134567738066       -0.2910290404931235       -0.3034110000000000
O        0.0132794389822273        0.1199411768878776        0.2910290404931235       -0.3034110000000000
N       -1.0047353469276119       -0.2719656116877253        0.0000063010906643        0.1979110000000000
N       -0.7563792976173740       -0.8216499628651104       -0.0005435506406163        0.1055000000000000

        RMSE         7.076897063E-01 kcal/mol
         MAE         4.872037031E-01 kcal/mol
     max. AE         4.160852276E+00 kcal/mol

Coordinates in bohr
s                   x[bohr]                   y[bohr]                   z[bohr]                      q[e]
local coordinates in angstrom
s                      x[a]                      y[a]                       z[a                      q[e]
x        0.5458846852684474        0.0013187862130621        0.2278108261834859        0.1979110000000000
x       -0.5412683069598643       -0.0015570076582208        0.5252469597471645        0.1055000000000000
x        0.0107528264697976        0.5499651810867796        0.0258826907306684       -0.3034110000000000
x        0.0099913245439893       -0.5499651810867796        0.0252963665711832       -0.3034110000000000
x       -0.5536335555098049       -0.0000119073356473        0.2475850560313120        0.1979110000000000
x        0.5570036040289779        0.0010271618460820        0.5040192961314460        0.1055000000000000
