6
s                      x[A]                      y[A]                      z[A]                      q[e]
N        1.0814889542775608       -0.2803465499137345       -0.0009602617874072        0.1979110000000000
N        0.8430722717141916       -0.7989689115859885        0.0008751831635395        0.1055000000000000
O       -0.0067525482185431        0.1267566594446702       -0.2910698163624831       -0.3034110000000000
O       -0.0082341777827662        0.1263603693558881        0.2910698163624831       -0.3034110000000000
N       -1.0876366845787244       -0.3787279429075039        0.0001007271340414        0.1979110000000000
N       -0.8308194624928278       -0.8856870235994408       -0.0002681829845691        0.1055000000000000

        RMSE         7.353136591E-01 kcal/mol
         MAE         5.006863929E-01 kcal/mol
     max. AE         4.448047389E+00 kcal/mol

Coordinates in bohr
s                   x[bohr]                   y[bohr]                   z[bohr]                      q[e]
local coordinates in angstrom
s                      x[a]                      y[a]                       z[a                      q[e]
x        0.5494537018316805        0.0018146317869423        0.2951724626418581        0.1979110000000000
x       -0.5123546003906085       -0.0016538564887014        0.4850611664915050        0.1055000000000000
x        0.0064711821446508        0.5500422363123967       -0.0200473656509530       -0.3034110000000000
x        0.0042573961636663       -0.5500422363123967       -0.0219179985488154       -0.3034110000000000
x       -0.5535118405223329       -0.0001903466967406        0.2838705128287984        0.1979110000000000
x        0.4975063105221125        0.0005067923923434        0.5045087020407664        0.1055000000000000
