6
s                      x[A]                      y[A]                      z[A]                      q[e]
N       -0.0000770111520978        0.9950268695908024       -0.3750442279773383        0.1979110000000000
N       -0.0013940828265645        0.7277279549073667       -0.9141055649839129        0.1055000000000000
O       -0.2910749330492218        0.0005015152172222        0.1163727159032020       -0.3034110000000000
O        0.2910749330492218       -0.0006964263669256        0.1158851749301852       -0.3034110000000000
N        0.0002599967881902       -0.9957282353240987       -0.3756436135244234        0.1979110000000000
N       -0.0002588878307132       -0.7249792536451583       -0.9145209575626654        0.1055000000000000

        RMSE         7.118989639E-01 kcal/mol
         MAE         4.895783227E-01 kcal/mol
     max. AE         4.110410978E+00 kcal/mol

Coordinates in bohr
s                   x[bohr]                   y[bohr]                   z[bohr]                      q[e]
local coordinates in angstrom
s                      x[a]                      y[a]                       z[a                      q[e]
x        0.5440626428394353        0.0001455299860709        0.2230669091768505        0.1979110000000000
x       -0.5521495039020010        0.0026344347384111        0.5250145305944898        0.1055000000000000
x       -0.0154424574520817        0.5500519054490027        0.0150658356205895       -0.3034110000000000
x       -0.0176376937424720       -0.5500519054490027        0.0139913716202500       -0.3034110000000000
x       -0.5441009153464620       -0.0004913227231782        0.2248099361986533        0.1979110000000000
x        0.5561953889628057        0.0004892270972618        0.5216637574994820        0.1055000000000000
