6
s                      x[A]                      y[A]                      z[A]                      q[e]
N       -0.0004212961049009        1.1110898662171280       -0.2653792776231944        0.1979110000000000
N        0.0006956370412641        0.9106091135253306       -0.7461203993982858        0.1055000000000000
O       -0.2910474658685001        0.0006419513215143        0.1531994956425841       -0.3034110000000000
O        0.2910474658685001       -0.0001397434239513        0.1525643571492215       -0.3034110000000000
N       -0.0011055334466885       -1.1101928482802690       -0.2648017425914562        0.1979110000000000
N        0.0013303776969683       -0.9100345321138272       -0.7494817332440858        0.1055000000000000

        RMSE         7.364611626E-01 kcal/mol
         MAE         4.978311649E-01 kcal/mol
     max. AE         4.489649558E+00 kcal/mol

Coordinates in bohr
s                   x[bohr]                   y[bohr]                   z[bohr]                      q[e]
local coordinates in angstrom
s                      x[a]                      y[a]                       z[a                      q[e]
x        0.5500000000000000        0.0007961342559849        0.3308441695171438        0.1979110000000000
x       -0.4189325756345377       -0.0013145634907130        0.5040949422858754        0.1055000000000000
x        0.0791003206774353        0.5500000000000000       -0.0494850602992058       -0.3034110000000000
x        0.0772914936223558       -0.5500000000000000       -0.0500773463465295       -0.3034110000000000
x       -0.5500000000000000        0.0020891554367746        0.3288280983998611        0.1979110000000000
x        0.4248611447673870       -0.0025140494906874        0.5066205989990239        0.1055000000000000
