6
s                      x[A]                      y[A]                      z[A]                      q[e]
N        0.9451249914453936       -0.3342218311938612       -0.0006942116882675        0.1979110000000000
N        0.6939477662617836       -0.8921166016326836        0.0006978307765101        0.1055000000000000
O       -0.0056305712534711        0.1218481876097796       -0.2910474658685001       -0.3034110000000000
O       -0.0068812861872498        0.1217603589768871        0.2910474658685001       -0.3034110000000000
N       -0.9448771681600960       -0.4241158160450324        0.0002439608843817        0.1979110000000000
N       -0.6709641650765982       -0.9648520194021200       -0.0001340470991740        0.1055000000000000

        RMSE         7.047068199E-01 kcal/mol
         MAE         4.837014788E-01 kcal/mol
     max. AE         4.131933546E+00 kcal/mol

Coordinates in bohr
s                   x[bohr]                   y[bohr]                   z[bohr]                      q[e]
local coordinates in angstrom
s                      x[a]                      y[a]                       z[a                      q[e]
x        0.5500000000000000        0.0013118699639173        0.1939379670195182        0.1979110000000000
x       -0.5500000000000000       -0.0013187090495196        0.5500000000000000        0.1055000000000000
x       -0.0175572151423381        0.5500000000000000        0.0015484788978341       -0.3034110000000000
x       -0.0192670635435117       -0.5500000000000000       -0.0000916852642423       -0.3034110000000000
x       -0.5362071005108474       -0.0004610192568059        0.1863384867326003        0.1979110000000000
x        0.5500000000000000        0.0002533123053510        0.5499990000000000        0.1055000000000000
