6
s                      x[A]                      y[A]                      z[A]                      q[e]
N        1.1526520436044703       -0.3163259841479688       -0.0003169982819267        0.1979110000000000
N        0.9433119332584199       -0.7915710484935040        0.0003938343633172        0.1055000000000000
O        0.0130202199208075        0.1507634108773016       -0.2914350427110055       -0.3034110000000000
O        0.0119059069255672        0.1501269346269222        0.2914350427110055       -0.3034110000000000
N       -1.1357858312677975       -0.2100660808608862       -0.0009837888401713        0.1979110000000000
N       -0.9594921667277017       -0.6816546648812448        0.0015025042639645        0.1055000000000000

        RMSE         7.652806671E-01 kcal/mol
         MAE         5.118876018E-01 kcal/mol
     max. AE         4.799159257E+00 kcal/mol

Coordinates in bohr
s                   x[bohr]                   y[bohr]                   z[bohr]                      q[e]
local coordinates in angstrom
s                      x[a]                      y[a]                       z[a                      q[e]
x        0.5648247629314938        0.0005990399350821        0.3417292309618460        0.1979110000000000
x       -0.4005553595752644       -0.0007442390854635        0.5180530796042149        0.1055000000000000
x        0.0873971213588902        0.5507324140849050       -0.0295032350306030       -0.3034110000000000
x        0.0852201518368929       -0.5507324140849050       -0.0305716998542493       -0.3034110000000000
x       -0.5380272042664274        0.0018590914732055        0.3485036091879010        0.1979110000000000
x        0.4018506283721308       -0.0028393215612255        0.4961728529578977        0.1055000000000000
