6
s                      x[A]                      y[A]                      z[A]                      q[e]
N        1.0955975353073577       -0.1826336749681922       -0.0011771202067795        0.1979110000000000
N        0.9128592504958460       -0.6643694009558055        0.0023158176787807        0.1055000000000000
O       -0.0062074679189753        0.1638418830724679       -0.2910474658685001       -0.3034110000000000
O       -0.0071761722916611        0.1634428830752736        0.2910474658685001       -0.3034110000000000
N       -1.1042389912023804       -0.3012693744594240        0.0000142886374773        0.1979110000000000
N       -0.9003036471694291       -0.7709895806378138       -0.0011702328933107        0.1055000000000000

        RMSE         7.220725707E-01 kcal/mol
         MAE         4.854933697E-01 kcal/mol
     max. AE         4.302788088E+00 kcal/mol

Coordinates in bohr
s                   x[bohr]                   y[bohr]                   z[bohr]                      q[e]
local coordinates in angstrom
s                      x[a]                      y[a]                       z[a                      q[e]
x        0.5500000000000000        0.0022244348075555        0.3476999414963566        0.1979110000000000
x       -0.4128815435789313       -0.0043762611693889        0.4920718681068919        0.1055000000000000
x        0.1020099264350420        0.5500000000000000       -0.0706981455670390       -0.3034110000000000
x        0.1004565150421300       -0.5500000000000000       -0.0719255310356404       -0.3034110000000000
x       -0.5500000000000000       -0.0000270016115380        0.3377403119348424        0.1979110000000000
x        0.4006132224016252        0.0022114196713594        0.5187459335236964        0.1055000000000000
