6
s                      x[A]                      y[A]                      z[A]                      q[e]
N        0.9291526363648009       -0.4489469629920049       -0.0005960427311060        0.1979110000000000
N        0.6435374245726635       -0.9724647362697947        0.0007464972030328        0.1055000000000000
O        0.0056066067981511        0.1117845878459389       -0.2910728083079034       -0.3034110000000000
O        0.0044802250441502        0.1117052031408774        0.2910728083079034       -0.3034110000000000
N       -0.9304148912708804       -0.3601857095039153        0.0005518963595564        0.1979110000000000
N       -0.6681968811592357       -0.9003011871318061       -0.0016277602917171        0.1055000000000000

        RMSE         7.083124015E-01 kcal/mol
         MAE         4.852629499E-01 kcal/mol
     max. AE         4.249590483E+00 kcal/mol

Coordinates in bohr
s                   x[bohr]                   y[bohr]                   z[bohr]                      q[e]
local coordinates in angstrom
s                      x[a]                      y[a]                       z[a                      q[e]
x        0.5121592417563079        0.0011263575208602        0.1938229637598852        0.1979110000000000
x       -0.5614230724968365       -0.0014106752671523        0.5365461462642998        0.1055000000000000
x       -0.0182193137511604        0.5500478902698234        0.0344200665749668       -0.3034110000000000
x       -0.0198623140313430       -0.5500478902698234        0.0330585260221596       -0.3034110000000000
x       -0.5271022272618211       -0.0010429329691988        0.1998576289915945        0.1979110000000000
x        0.5559664229949703        0.0030760211492407        0.5378968451550463        0.1055000000000000
