6
s                      x[A]                      y[A]                      z[A]                      q[e]
N        1.0409402574867457       -0.3201493380335906       -0.0008058704394932        0.1979110000000000
N        0.7841962004551795       -0.8564209090803687        0.0004218243303227        0.1055000000000000
O       -0.0078411769828411        0.1148252682120742       -0.2910500172336438       -0.3034110000000000
O       -0.0095248324609256        0.1146405999932091        0.2910500172336438       -0.3034110000000000
N       -1.0455246364695516       -0.4106155716555843        0.0005497072736866        0.1979110000000000
N       -0.7708476635003987       -0.9352653044216764       -0.0008528890214006        0.1055000000000000

        RMSE         7.264914934E-01 kcal/mol
         MAE         4.990505252E-01 kcal/mol
     max. AE         4.238779823E+00 kcal/mol

Coordinates in bohr
s                   x[bohr]                   y[bohr]                   z[bohr]                      q[e]
local coordinates in angstrom
s                      x[a]                      y[a]                       z[a                      q[e]
x        0.5477100410166713        0.0015228744232445        0.2566106084559578        0.1979110000000000
x       -0.5494559537582973       -0.0007971324573646        0.4987159827032883        0.1055000000000000
x       -0.0257126026749575        0.5500048213813677        0.0012975020208614       -0.3034110000000000
x       -0.0279474881199349       -0.5500048213813677       -0.0009937751592588       -0.3034110000000000
x       -0.5506098307459979       -0.0010387961964398        0.2446885463468789        0.1979110000000000
x        0.5357718163659229        0.0016117266658568        0.5133229219063651        0.1055000000000000
