6
s                      x[A]                      y[A]                      z[A]                      q[e]
N       -0.0001203488008910        1.0709970047354400       -0.3222955644252700        0.1979110000000000
N       -0.0011670972967381        0.8089576153208012       -0.8274348863749117        0.1055000000000000
O       -0.2910474658685001        0.0005783002416037        0.1323044368425811       -0.3034110000000000
O        0.2910474658685001       -0.0002580869831452        0.1317124236623986       -0.3034110000000000
N        0.0000433862225886       -1.0706675574731455       -0.3220493304571387        0.1979110000000000
N       -0.0003346556435261       -0.8082473752710559       -0.8270929826814669        0.1055000000000000

        RMSE         7.193219636E-01 kcal/mol
         MAE         4.885755432E-01 kcal/mol
     max. AE         4.432727071E+00 kcal/mol

Coordinates in bohr
s                   x[bohr]                   y[bohr]                   z[bohr]                      q[e]
local coordinates in angstrom
s                      x[a]                      y[a]                       z[a                      q[e]
x        0.5500000000000000        0.0002274262732113        0.3034025376002223        0.1979110000000000
x       -0.5110606108418269        0.0022054942525972        0.4782443150775915        0.1055000000000000
x        0.0271111552586781        0.5500000000000000       -0.0188989523205814       -0.3034110000000000
x        0.0252688203186891       -0.5500000000000000       -0.0194951929358335       -0.3034110000000000
x       -0.5500000000000000       -0.0000819880783105        0.3026252955979198        0.1979110000000000
x        0.5113466021611255        0.0006324075126032        0.4767824494739044        0.1055000000000000
