6
s                      x[A]                      y[A]                      z[A]                      q[e]
N        0.9451275836839214       -0.3342241796135274       -0.0006935763145230        0.1979110000000000
N        0.6939477662617836       -0.8921166016326836        0.0006960631115696        0.1055000000000000
O       -0.0056294057309165        0.1218314651765092       -0.2910474658685001       -0.3034110000000000
O       -0.0068805565318545        0.1217472357411623        0.2910474658685001       -0.3034110000000000
N       -0.9448791017087652       -0.4240994709231717        0.0002450712331103        0.1979110000000000
N       -0.6709641650765982       -0.9648520194021200       -0.0001321900437352        0.1055000000000000

        RMSE         7.047069088E-01 kcal/mol
         MAE         4.837379907E-01 kcal/mol
     max. AE         4.132864891E+00 kcal/mol

Coordinates in bohr
s                   x[bohr]                   y[bohr]                   z[bohr]                      q[e]
local coordinates in angstrom
s                      x[a]                      y[a]                       z[a                      q[e]
x        0.5500000000000000        0.0013106692815528        0.1939445769496636        0.1979110000000000
x       -0.5500000000000000       -0.0013153686469006        0.5500000000000000        0.1055000000000000
x       -0.0175791557586514        0.5500000000000000        0.0015713277972978       -0.3034110000000000
x       -0.0192845165753615       -0.5500000000000000       -0.0000740132738244       -0.3034110000000000
x       -0.5362313985316011       -0.0004631175118068        0.1863190698988831        0.1979110000000000
x        0.5500000000000000        0.0002498029791719        0.5499990000000000        0.1055000000000000
