6
s                      x[A]                      y[A]                      z[A]                      q[e]
N        1.1634817470697034       -0.2919144918240317        0.0011797051411662        0.1979110000000000
N        1.0026256458643221       -0.7521849935890697       -0.0031092632360618        0.1055000000000000
O        0.0070301019340795        0.1633969966753858       -0.2911153418255950       -0.3034110000000000
O        0.0069946571089549        0.1632197814244456        0.2911153418255950       -0.3034110000000000
N       -1.1483262690565861       -0.1641040311621553       -0.0015717796573177        0.1979110000000000
N       -1.0208358095827978       -0.6369706487183238        0.0030959198024939        0.1055000000000000

        RMSE         7.682411660E-01 kcal/mol
         MAE         5.177610542E-01 kcal/mol
     max. AE         4.701790002E+00 kcal/mol

Coordinates in bohr
s                   x[bohr]                   y[bohr]                   z[bohr]                      q[e]
local coordinates in angstrom
s                      x[a]                      y[a]                       z[a                      q[e]
x        0.5530166922594617       -0.0022293196255987        0.3450928108541120        0.1979110000000000
x       -0.3445445735687827        0.0058756559681115        0.5532039178797277        0.1055000000000000
x        0.1118187620504614        0.5501282669694127       -0.0550171338704786       -0.3034110000000000
x        0.1114999400597299       -0.5501282669694127       -0.0548947036427307       -0.3034110000000000
x       -0.5528889171068840        0.0029702330818964        0.3437468144293234        0.1979110000000000
x        0.3518984959528098       -0.0058504405330950        0.5384347771068860        0.1055000000000000
