6
s                      x[A]                      y[A]                      z[A]                      q[e]
N       -0.0003479481506398        0.9309695725900325       -0.3754582919160612        0.1979110000000000
N        0.0007477399896415        0.6567761583343573       -0.9142883364240965        0.1055000000000000
O       -0.2910795115329491        0.0003055568343612        0.1239118794787602       -0.3034110000000000
O        0.2910795115329491       -0.0000507507833612        0.1237965180458099       -0.3034110000000000
N        0.0001572920844781       -0.9299930983179424       -0.3754854400838976        0.1979110000000000
N       -0.0013264995505614       -0.6568871511200541       -0.9150172654416922        0.1055000000000000

        RMSE         6.880347302E-01 kcal/mol
         MAE         4.692087835E-01 kcal/mol
     max. AE         4.009370154E+00 kcal/mol

Coordinates in bohr
s                   x[bohr]                   y[bohr]                   z[bohr]                      q[e]
local coordinates in angstrom
s                      x[a]                      y[a]                       z[a                      q[e]
x        0.5331858111403562        0.0006575267105688        0.2078416329568427        0.1979110000000000
x       -0.5605187658402428       -0.0014130237934751        0.5381526412202220        0.1055000000000000
x       -0.0021418120518319        0.5500605575293172        0.0028518102703856       -0.3034110000000000
x       -0.0027650470501612       -0.5500605575293172        0.0025164481448883       -0.3034110000000000
x       -0.5318721585545063       -0.0002972389613660        0.2065447265176772        0.1979110000000000
x        0.5613682812381739        0.0025067208561040        0.5392570676158357        0.1055000000000000
