6
s                      x[A]                      y[A]                      z[A]                      q[e]
N        1.0922144763969333       -0.1726082227652135       -0.0007593113732811        0.1979110000000000
N        0.8845202187105580       -0.6737919996996881        0.0008770256409262        0.1055000000000000
O       -0.0136270396698851        0.1474816042088818       -0.2910474658685001       -0.3034110000000000
O       -0.0145378277925015        0.1473874776065646        0.2910474658685001       -0.3034110000000000
N       -1.1010222961948999       -0.3899581253945810       -0.0001210799612663        0.1979110000000000
N       -0.8729805639684575       -0.8665736490484973        0.0004521137605154        0.1055000000000000

        RMSE         7.345457060E-01 kcal/mol
         MAE         4.966693048E-01 kcal/mol
     max. AE         4.306797724E+00 kcal/mol

Coordinates in bohr
s                   x[bohr]                   y[bohr]                   z[bohr]                      q[e]
local coordinates in angstrom
s                      x[a]                      y[a]                       z[a                      q[e]
x        0.5500000000000000        0.0014348905394465        0.3405468339048467        0.1979110000000000
x       -0.4679752491075456       -0.0016573382663546        0.4620772048129536        0.1055000000000000
x        0.0541719607818999        0.5500000000000000       -0.0599557229817900       -0.3034110000000000
x        0.0531741157175129       -0.5500000000000000       -0.0613693238758817       -0.3034110000000000
x       -0.5500000000000000        0.0002288079660743        0.3087318264972050        0.1979110000000000
x        0.4241704808014133       -0.0008543711849249        0.5276143900372740        0.1055000000000000
