6
s                      x[A]                      y[A]                      z[A]                      q[e]
N        0.8805593118061242       -0.4075764536162839       -0.0004981062741598        0.1979110000000000
N        0.6245344618362231       -0.9317258768441756        0.0004329636079399        0.1055000000000000
O       -0.0028077306514991        0.0951072948049742       -0.2910834762501027       -0.3034110000000000
O       -0.0035000892508570        0.0951369265110713        0.2910834762501027       -0.3034110000000000
N       -0.8732844329779444       -0.4973824734238255        0.0002637963133263        0.1979110000000000
N       -0.5934140047347973       -0.9984513847786790       -0.0006765722387990        0.1055000000000000

        RMSE         7.273727781E-01 kcal/mol
         MAE         4.973856216E-01 kcal/mol
     max. AE         4.942657658E+00 kcal/mol

Coordinates in bohr
s                   x[bohr]                   y[bohr]                   z[bohr]                      q[e]
local coordinates in angstrom
s                      x[a]                      y[a]                       z[a                      q[e]
x        0.4930153777777377        0.0009412844395342        0.1770371514739963        0.1979110000000000
x       -0.5405293341291326       -0.0008181826412965        0.5603804177262646        0.1055000000000000
x       -0.0602356524996139        0.5500680497589023        0.0555255498411498       -0.3034110000000000
x       -0.0611442476547381       -0.5500680497589023        0.0545824604778318       -0.3034110000000000
x       -0.4630674800091583       -0.0004985027850921        0.1757929487703223        0.1979110000000000
x        0.5562204891402871        0.0012785362354180        0.5464031221927144        0.1055000000000000
