6
s                      x[A]                      y[A]                      z[A]                      q[e]
N        1.1737420393406273       -0.2812170206162639       -0.0003497404088170        0.1979110000000000
N        1.0195228712312221       -0.7300270041387122       -0.0001697889687957        0.1055000000000000
O        0.0056289719319484        0.1688708253206983       -0.2910474658685001       -0.3034110000000000
O        0.0048751368906252        0.1683343715045331        0.2910474658685001       -0.3034110000000000
N       -1.1540137899800722       -0.1469974371344328       -0.0019302090342984        0.1979110000000000
N       -1.0492495636885391       -0.6046147390214086        0.0038625461958329        0.1055000000000000

        RMSE         7.774177653E-01 kcal/mol
         MAE         5.266964335E-01 kcal/mol
     max. AE         4.674309589E+00 kcal/mol

Coordinates in bohr
s                   x[bohr]                   y[bohr]                   z[bohr]                      q[e]
local coordinates in angstrom
s                      x[a]                      y[a]                       z[a                      q[e]
x        0.5500000000000000        0.0006609135876699        0.3565062065636026        0.1979110000000000
x       -0.3256790387741362        0.0003208546501477        0.5500000000000000        0.1055000000000000
x        0.1249330303056439        0.5500000000000000       -0.0638650759972143       -0.3034110000000000
x        0.1233252576052093       -0.5500000000000000       -0.0645521545013435       -0.3034110000000000
x       -0.5500000000000000        0.0036475664397085        0.3469436482059972        0.1979110000000000
x        0.3135927419283159       -0.0072991544570531        0.5499990000000000        0.1055000000000000
