6
s                      x[A]                      y[A]                      z[A]                      q[e]
N        1.1063705370470562       -0.1357087403588992        0.0001126594202176        0.1979110000000000
N        0.9401049765033348       -0.6249223692153295       -0.0002247901151814        0.1055000000000000
O       -0.0125866962060525        0.1570264833116198       -0.2910325764679016       -0.3034110000000000
O       -0.0129566049063894        0.1570899025362279        0.2910325764679016       -0.3034110000000000
N       -1.1246532891996019       -0.3692726617220666       -0.0016841853906870        0.1979110000000000
N       -0.9151463655795322       -0.8349714414749463        0.0028125030514485        0.1055000000000000

        RMSE         7.429752552E-01 kcal/mol
         MAE         5.013151935E-01 kcal/mol
     max. AE         4.300979635E+00 kcal/mol

Coordinates in bohr
s                   x[bohr]                   y[bohr]                   z[bohr]                      q[e]
local coordinates in angstrom
s                      x[a]                      y[a]                       z[a                      q[e]
x        0.5487046116618330       -0.0002128954496641        0.3488306428662327        0.1979110000000000
x       -0.4177435119381698        0.0004247917534030        0.4879717245494248        0.1055000000000000
x        0.0829810781801825        0.5499718631106969       -0.0689010682922344       -0.3034110000000000
x        0.0827709391824101       -0.5499718631106969       -0.0695784470303806       -0.3034110000000000
x       -0.5526215498630336        0.0031826491328957        0.3298744700550742        0.1979110000000000
x        0.3899936587949924       -0.0053148604942521        0.5365089382066799        0.1055000000000000
