6
s                      x[A]                      y[A]                      z[A]                      q[e]
N        0.9565132151561372       -0.3216983170489625       -0.0009384249771803        0.1979110000000000
N        0.7126702851852776       -0.8815132926156455        0.0003642726172291        0.1055000000000000
O       -0.0071696853611440        0.1254875827071603       -0.2910474658685001       -0.3034110000000000
O       -0.0086975555584786        0.1251498411326127        0.2910474658685001       -0.3034110000000000
N       -0.9628535895047143       -0.4094580167387053       -0.0009304191927902        0.1979110000000000
N       -0.6888818045394803       -0.9560314244250732        0.0027391096724576        0.1055000000000000

        RMSE         6.995828500E-01 kcal/mol
         MAE         4.800121201E-01 kcal/mol
     max. AE         3.974224849E+00 kcal/mol

Coordinates in bohr
s                   x[bohr]                   y[bohr]                   z[bohr]                      q[e]
local coordinates in angstrom
s                      x[a]                      y[a]                       z[a                      q[e]
x        0.5500000000000000        0.0017733661961598        0.2014611766546679        0.1979110000000000
x       -0.5500000000000000       -0.0006883754815667        0.5500000000000000        0.1055000000000000
x       -0.0109392132421791        0.5500000000000000       -0.0084355658745799       -0.3034110000000000
x       -0.0133187247583707       -0.5500000000000000       -0.0101909924868782       -0.3034110000000000
x       -0.5500000000000000        0.0017582374562430        0.1966226429315872        0.1979110000000000
x        0.5500000000000000       -0.0051761671085373        0.5499990000000000        0.1055000000000000
