6
s                      x[A]                      y[A]                      z[A]                      q[e]
N       -0.0001420624702367        1.1358768883211880       -0.2973565076790743        0.1979110000000000
N       -0.0007339528320496        0.9363646183762138       -0.7898897677128790        0.1055000000000000
O       -0.2910474658685001        0.0008777959653697        0.1356351713928360       -0.3034110000000000
O        0.2910474658685001       -0.0005062282351940        0.1351848704556654       -0.3034110000000000
N       -0.0009754022419050       -1.1358798449156633       -0.2973584850783454        0.1979110000000000
N        0.0017542597683265       -0.9352472106507222       -0.7901272064502965        0.1055000000000000

        RMSE         7.695743580E-01 kcal/mol
         MAE         5.248503554E-01 kcal/mol
     max. AE         4.668603248E+00 kcal/mol

Coordinates in bohr
s                   x[bohr]                   y[bohr]                   z[bohr]                      q[e]
local coordinates in angstrom
s                      x[a]                      y[a]                       z[a                      q[e]
x        0.5500000000000000        0.0002684591614534        0.3077427639492349        0.1979110000000000
x       -0.4332669607243624        0.0013869698415780        0.5117867050852537        0.1055000000000000
x        0.0377541267503933        0.5500000000000000       -0.0232547324601482       -0.3034110000000000
x        0.0355927960960637       -0.5500000000000000       -0.0249556777046080       -0.3034110000000000
x       -0.5500000000000000        0.0018432430993580        0.3077494855217112        0.1979110000000000
x        0.4348138323584469       -0.0033150705150463        0.5102809341018032        0.1055000000000000
