6
s                      x[A]                      y[A]                      z[A]                      q[e]
N        1.1331145648648551       -0.3593163106874621        0.0004111673306008        0.1979110000000000
N        0.9403675036687533       -0.8202249219675911       -0.0004587045219425        0.1055000000000000
O        0.0125364254104360        0.1641895229986647       -0.2910474658685001       -0.3034110000000000
O        0.0120712454004889        0.1639994920302690        0.2910474658685001       -0.3034110000000000
N       -1.1089356342737537       -0.1136948222024462       -0.0004209458732947        0.1979110000000000
N       -0.9751477868973853       -0.5924899396725153       -0.0002418597266543        0.1055000000000000

        RMSE         7.464863955E-01 kcal/mol
         MAE         5.038744886E-01 kcal/mol
     max. AE         4.536339197E+00 kcal/mol

Coordinates in bohr
s                   x[bohr]                   y[bohr]                   z[bohr]                      q[e]
local coordinates in angstrom
s                      x[a]                      y[a]                       z[a                      q[e]
x        0.5500000000000000       -0.0007769936465711        0.3362751026930080        0.1979110000000000
x       -0.3695744836174598        0.0008668259189804        0.5500000000000000        0.1055000000000000
x        0.1145393311801302        0.5500000000000000       -0.0533416032843424       -0.3034110000000000
x        0.1137340480887667       -0.5500000000000000       -0.0538448209792675       -0.3034110000000000
x       -0.5500000000000000        0.0007954724141687        0.3437404346110702        0.1979110000000000
x        0.3747193560093823        0.0004570486441547        0.5094546149860280        0.1055000000000000
