6
s                      x[A]                      y[A]                      z[A]                      q[e]
N        0.9027213020140249       -0.5227570619658060       -0.0000852544876213        0.1979110000000000
N        0.6312900333105873       -1.0273890263470968       -0.0009392294967584        0.1055000000000000
O        0.0067895400232007        0.0765356185474343       -0.2910474658685001       -0.3034110000000000
O        0.0053317127162088        0.0778558546375224        0.2910474658685001       -0.3034110000000000
N       -0.9080587571237106       -0.4417482947219203        0.0013198394615553        0.1979110000000000
N       -0.6502433757899660       -0.9608044372506410       -0.0021200209907420        0.1055000000000000

        RMSE         7.586030361E-01 kcal/mol
         MAE         5.211653177E-01 kcal/mol
     max. AE         5.125339431E+00 kcal/mol

Coordinates in bohr
s                   x[bohr]                   y[bohr]                   z[bohr]                      q[e]
local coordinates in angstrom
s                      x[a]                      y[a]                       z[a                      q[e]
x        0.4620998430450295        0.0001611076325704        0.1651159370354845        0.1979110000000000
x       -0.5500000000000000        0.0017748865178250        0.5500000000000000        0.1055000000000000
x       -0.0759739850235846        0.5500000000000000        0.1072883914527990       -0.3034110000000000
x       -0.0764225112774221       -0.5500000000000000        0.1035988499645272       -0.3034110000000000
x       -0.4788925851831470       -0.0024941351119113        0.1746883954475620        0.1979110000000000
x        0.5500000000000000        0.0040062590527242        0.5499990000000000        0.1055000000000000
