6
s                      x[A]                      y[A]                      z[A]                      q[e]
N        1.0570865984441908       -0.2176055431125804       -0.0003270640407729        0.1979110000000000
N        0.8281444089520317       -0.7448157702387187       -0.0006304117104842        0.1055000000000000
O       -0.0139166975841434        0.1345420280430671       -0.2910376211581465       -0.3034110000000000
O       -0.0147734863404374        0.1343417603027719        0.2910376211581465       -0.3034110000000000
N       -1.0681275769320706       -0.4163089182158106       -0.0008093750375740        0.1979110000000000
N       -0.8022563404720774       -0.9211760851458721        0.0017670402711027        0.1055000000000000

        RMSE         7.170806227E-01 kcal/mol
         MAE         4.877914325E-01 kcal/mol
     max. AE         4.229481943E+00 kcal/mol

Coordinates in bohr
s                   x[bohr]                   y[bohr]                   z[bohr]                      q[e]
local coordinates in angstrom
s                      x[a]                      y[a]                       z[a                      q[e]
x        0.5530867657280396        0.0006180614625464        0.3020954259118298        0.1979110000000000
x       -0.5187661447016580        0.0011913054790966        0.4778415648725058        0.1055000000000000
x        0.0166403599769183        0.5499813961936475       -0.0419991890075835       -0.3034110000000000
x        0.0154454789289957       -0.5499813961936475       -0.0431554574661277       -0.3034110000000000
x       -0.5573925434564444        0.0015294971537969        0.2777567595639994        0.1979110000000000
x        0.4932677139104271       -0.0033392221650388        0.5201912704615097        0.1055000000000000
