6
s                      x[A]                      y[A]                      z[A]                      q[e]
N        1.1626448567131349       -0.3044521016439816       -0.0002028738616304        0.1979110000000000
N        0.9662511421410547       -0.7704798597523483        0.0005229030254159        0.1055000000000000
O        0.0136873959426829        0.1550454858834389       -0.2914161222280607       -0.3034110000000000
O        0.0126838712885256        0.1544004841762363        0.2914161222280607       -0.3034110000000000
N       -1.1451577781414366       -0.1968986043773379       -0.0011059417351996        0.1979110000000000
N       -0.9801994562542894       -0.6553503035554726        0.0018342658753130        0.1055000000000000

        RMSE         7.744372288E-01 kcal/mol
         MAE         5.182522136E-01 kcal/mol
     max. AE         4.849934780E+00 kcal/mol

Coordinates in bohr
s                   x[bohr]                   y[bohr]                   z[bohr]                      q[e]
local coordinates in angstrom
s                      x[a]                      y[a]                       z[a                      q[e]
x        0.5629572423940772        0.0003833760364955        0.3508487129315654        0.1979110000000000
x       -0.3771153784659873       -0.0009881435082093        0.5228130524101289        0.1055000000000000
x        0.0999477316393040        0.5506966595539780       -0.0345309432050414       -0.3034110000000000
x        0.0978891408392428       -0.5506966595539780       -0.0354497178010433       -0.3034110000000000
x       -0.5318517476775924        0.0020899269902408        0.3595346697188688        0.1979110000000000
x        0.3786573346683326       -0.0034662601456148        0.4963025901652145        0.1055000000000000
