6
s                      x[A]                      y[A]                      z[A]                      q[e]
N       -0.0015398415103509        1.0096642157183644       -0.4005859818710674        0.1979110000000000
N        0.0010579621207770        0.7566127988630750       -0.9594792658063898        0.1055000000000000
O       -0.2910474658685001        0.0008035544417852        0.1024727529959371       -0.3034110000000000
O        0.2910474658685001       -0.0009723728858363        0.1023808819273800       -0.3034110000000000
N        0.0001832279729299       -1.0097326810653613       -0.4006493259884089        0.1979110000000000
N        0.0008881013415204       -0.7566124104330474       -0.9594789064310513        0.1055000000000000

        RMSE         7.454682759E-01 kcal/mol
         MAE         5.161201182E-01 kcal/mol
     max. AE         4.382213556E+00 kcal/mol

Coordinates in bohr
s                   x[bohr]                   y[bohr]                   z[bohr]                      q[e]
local coordinates in angstrom
s                      x[a]                      y[a]                       z[a                      q[e]
x        0.5500000000000000        0.0029098787311746        0.1837526830067528        0.1979110000000000
x       -0.5500000000000000       -0.0019992586593770        0.5500000000000000        0.1055000000000000
x       -0.0469267814209118        0.5500000000000000        0.0454853670944711       -0.3034110000000000
x       -0.0493333575991940       -0.5500000000000000        0.0431398656293247       -0.3034110000000000
x       -0.5500000000000000       -0.0003462506873604        0.1839289447324735        0.1979110000000000
x        0.5500000000000000       -0.0016782683071253        0.5499990000000000        0.1055000000000000
