6
s                      x[A]                      y[A]                      z[A]                      q[e]
N        0.9906069387345957       -0.2866469592084157       -0.0002742736063230        0.1979110000000000
N        0.7394284807995485       -0.8396519412600070       -0.0006891889346264        0.1055000000000000
O       -0.0142176270514983        0.1160037259034923       -0.2910404650949833       -0.3034110000000000
O       -0.0153454075961818        0.1161360393458455        0.2910404650949833       -0.3034110000000000
N       -0.9950413516286969       -0.4649635132270020        0.0001976721734242        0.1979110000000000
N       -0.7055175490742936       -0.9919348689323262        0.0002236037040295        0.1055000000000000

        RMSE         7.101837039E-01 kcal/mol
         MAE         4.876054858E-01 kcal/mol
     max. AE         3.999621989E+00 kcal/mol

Coordinates in bohr
s                   x[bohr]                   y[bohr]                   z[bohr]                      q[e]
local coordinates in angstrom
s                      x[a]                      y[a]                       z[a                      q[e]
x        0.5498873995375106        0.0005183019993922        0.2356685213017045        0.1979110000000000
x       -0.5637588567433340        0.0013023783351400        0.5134744669849169        0.1055000000000000
x       -0.0344527168686000        0.5499867704553871       -0.0069586324607371       -0.3034110000000000
x       -0.0355816607107045       -0.5499867704553871       -0.0087834617152112       -0.3034110000000000
x       -0.5415437378123897       -0.0003735462703958        0.2141287112026475        0.1979110000000000
x        0.5488479458181246       -0.0004225497612538        0.5336087297146150        0.1055000000000000
