6
s                      x[A]                      y[A]                      z[A]                      q[e]
N        1.0803161466336249       -0.2756037933290558       -0.0000408512207339        0.1979110000000000
N        0.8559777025483563       -0.7984285371940315       -0.0025373604364592        0.1055000000000000
O       -0.0066792770937235        0.1308930211192243       -0.2914440495553991       -0.3034110000000000
O       -0.0083254194294191        0.1308939604254446        0.2914440495553991       -0.3034110000000000
N       -1.0902006145467882       -0.3649829360886463       -0.0007373750718259        0.1979110000000000
N       -0.8436607507167813       -0.8965050241331755        0.0012829032229301        0.1055000000000000

        RMSE         7.272841557E-01 kcal/mol
         MAE         4.913413849E-01 kcal/mol
     max. AE         4.413495861E+00 kcal/mol

Coordinates in bohr
s                   x[bohr]                   y[bohr]                   z[bohr]                      q[e]
local coordinates in angstrom
s                      x[a]                      y[a]                       z[a                      q[e]
x        0.5555449941725783        0.0000771976190777        0.2882345464004175        0.1979110000000000
x       -0.4975881322498026        0.0047949163064800        0.5044971010138397        0.1055000000000000
x        0.0129666585517043        0.5507494345540636       -0.0243978884432039       -0.3034110000000000
x        0.0111915109584970       -0.5507494345540636       -0.0269524276609445       -0.3034110000000000
x       -0.5768075963002275        0.0013934369374908        0.2714026667899816        0.1979110000000000
x        0.4982761291564657       -0.0024243357368050        0.5362291985275078        0.1055000000000000
