6
s                      x[A]                      y[A]                      z[A]                      q[e]
N        0.9470276757760536       -0.3361147125912980        0.0002024167682313        0.1979110000000000
N        0.6880185050032196       -0.8815062685081179       -0.0002397148689878        0.1055000000000000
O       -0.0099460538427857        0.0978583507783113       -0.2910596508112445       -0.3034110000000000
O       -0.0107940432867239        0.0984204337165383        0.2910596508112445       -0.3034110000000000
N       -0.9434824929241938       -0.5182907064618452        0.0010525963212645        0.1979110000000000
N       -0.6360817583335802       -1.0122784427600842       -0.0006351183627060        0.1055000000000000

        RMSE         7.244942677E-01 kcal/mol
         MAE         4.990157847E-01 kcal/mol
     max. AE         4.330425846E+00 kcal/mol

Coordinates in bohr
s                   x[bohr]                   y[bohr]                   z[bohr]                      q[e]
local coordinates in angstrom
s                      x[a]                      y[a]                       z[a                      q[e]
x        0.5276599065978189       -0.0003825122551575        0.2104114063399720        0.1979110000000000
x       -0.5670822719187072        0.0004529954505870        0.5318570802864997        0.1055000000000000
x       -0.0652582966877162        0.5500230262046415        0.0330804049792306       -0.3034110000000000
x       -0.0655334635541749       -0.5500230262046415        0.0311776652192464       -0.3034110000000000
x       -0.4905567023394042       -0.0019891187678542        0.2059773400469567        0.1979110000000000
x        0.5669203573895629        0.0012001997627635        0.5070020951479819        0.1055000000000000
