6
s                      x[A]                      y[A]                      z[A]                      q[e]
N       -0.0001984618554844        1.0303131976587816       -0.4010980786775178        0.1979110000000000
N       -0.0005702372526114        0.7644390144655131       -0.9427537392644946        0.1055000000000000
O       -0.2910450440131426       -0.0001111136698689        0.0981289501786469       -0.3034110000000000
O        0.2910450440131426       -0.0010970004411955        0.0985555516239979       -0.3034110000000000
N       -0.0000753432573136       -1.0301351921762585       -0.4000507570000230        0.1979110000000000
N       -0.0000670121908053       -0.7632040723216414       -0.9430613310958438        0.1055000000000000

        RMSE         7.420600046E-01 kcal/mol
         MAE         5.114644721E-01 kcal/mol
     max. AE         4.206588120E+00 kcal/mol

Coordinates in bohr
s                   x[bohr]                   y[bohr]                   z[bohr]                      q[e]
local coordinates in angstrom
s                      x[a]                      y[a]                       z[a                      q[e]
x        0.5423798375222759        0.0003750385532157        0.2194968373696611        0.1979110000000000
x       -0.5556947721715915        0.0010775922339690        0.5267185908196552        0.1055000000000000
x       -0.0513137732264113        0.5499954233566591        0.0455579825452332       -0.3034110000000000
x       -0.0519537472073353       -0.5499954233566591        0.0436315078636653       -0.3034110000000000
x       -0.5436317227822656        0.0001423781217227        0.2179274505142530        0.1979110000000000
x        0.5576829890160298        0.0001266346876889        0.5253654356056359        0.1055000000000000
