6
s                      x[A]                      y[A]                      z[A]                      q[e]
N        0.9576457440637912       -0.3059907529374664       -0.0007638923746805        0.1979110000000000
N        0.7207010198766024       -0.8698135466599879        0.0005797198398883        0.1055000000000000
O       -0.0129229112507690        0.1126783477539642       -0.2910474658685001       -0.3034110000000000
O       -0.0139674791701696        0.1128254130243781        0.2910474658685001       -0.3034110000000000
N       -0.9603350758092229       -0.4817177426740945       -0.0001123926106786        0.1979110000000000
N       -0.6759813622497972       -1.0151003737882185        0.0006926937216689        0.1055000000000000

        RMSE         7.175734449E-01 kcal/mol
         MAE         4.940634619E-01 kcal/mol
     max. AE         4.250918125E+00 kcal/mol

Coordinates in bohr
s                   x[bohr]                   y[bohr]                   z[bohr]                      q[e]
local coordinates in angstrom
s                      x[a]                      y[a]                       z[a                      q[e]
x        0.5500000000000000        0.0014435473774718        0.1954336149577877        0.1979110000000000
x       -0.5500000000000000       -0.0010955117268832        0.5500000000000000        0.1055000000000000
x       -0.0448844210681910        0.5500000000000000        0.0063601135600401       -0.3034110000000000
x       -0.0459597699362586       -0.5500000000000000        0.0046816236475639       -0.3034110000000000
x       -0.5311229083159754        0.0002123912527078        0.1813849593568373        0.1979110000000000
x        0.5500000000000000       -0.0013090014227783        0.5499990000000000        0.1055000000000000
