6
s                      x[A]                      y[A]                      z[A]                      q[e]
N       -0.0004759617942638        1.0180279373628494       -0.4178353748190057        0.1979110000000000
N       -0.0009504046237280        0.7447062045050170       -0.9538886272152627        0.1055000000000000
O       -0.2911168132883704       -0.0013379271417912        0.0935949425538978       -0.3034110000000000
O        0.2911168132883704       -0.0028328764780575        0.0944303095837452       -0.3034110000000000
N       -0.0000328723816279       -1.0174441253181470       -0.4110656498642840        0.1979110000000000
N       -0.0002604642730495       -0.7483114440326524       -0.9567442056482974        0.1055000000000000

        RMSE         7.474338657E-01 kcal/mol
         MAE         5.114219925E-01 kcal/mol
     max. AE         4.393837370E+00 kcal/mol

Coordinates in bohr
s                   x[bohr]                   y[bohr]                   z[bohr]                      q[e]
local coordinates in angstrom
s                      x[a]                      y[a]                       z[a                      q[e]
x        0.5368068192515238        0.0008994374373401        0.2174911288229850        0.1979110000000000
x       -0.5575255351589021        0.0017960044472147        0.5263094973151965        0.1055000000000000
x       -0.0619895465281388        0.5501310476310621        0.0539082605174031       -0.3034110000000000
x       -0.0627493487261290       -0.5501310476310621        0.0507625326457628       -0.3034110000000000
x       -0.5454479276561415        0.0000621197983683        0.2079933736554267        0.1979110000000000
x        0.5568597395263168        0.0004922061415300        0.5349750709247019        0.1055000000000000
