6
s                      x[A]                      y[A]                      z[A]                      q[e]
N        1.1806594799968526       -0.2802592703003384        0.0000992881739618        0.1979110000000000
N        1.0125550248659623       -0.7270136247978229        0.0007729419780052        0.1055000000000000
O        0.0148758978638009        0.1635293370361109       -0.2913542441061495       -0.3034110000000000
O        0.0141937992325254        0.1629329290508769        0.2913542441061495       -0.3034110000000000
N       -1.1622349100449714       -0.1699020701365143       -0.0013450066974148        0.1979110000000000
N       -1.0211159131027763       -0.6004251411100904        0.0025063107181129        0.1055000000000000

        RMSE         7.955743799E-01 kcal/mol
         MAE         5.342657656E-01 kcal/mol
     max. AE         4.922174824E+00 kcal/mol

Coordinates in bohr
s                   x[bohr]                   y[bohr]                   z[bohr]                      q[e]
local coordinates in angstrom
s                      x[a]                      y[a]                       z[a                      q[e]
x        0.5583597360673593       -0.0001876274562846        0.3667174488914497        0.1979110000000000
x       -0.3276847156098484       -0.0014606486492994        0.5357949831150108        0.1055000000000000
x        0.1254298974190533        0.5505797268504082       -0.0436911539769227       -0.3034110000000000
x        0.1237961216318126       -0.5505797268504082       -0.0442034836842424       -0.3034110000000000
x       -0.5179801249385036        0.0025416942950205        0.3799518961568538        0.1979110000000000
x        0.3298957022163904       -0.0047362408425329        0.4987798489537454        0.1055000000000000
