6
s                      x[A]                      y[A]                      z[A]                      q[e]
N       -0.0003838737473911        0.9138326555333715       -0.3837630815755516        0.1979110000000000
N        0.0015872073884390        0.6468956222778810       -0.9237849008939767        0.1055000000000000
O       -0.2910474658685001        0.0001238024632878        0.1234365805938253       -0.3034110000000000
O        0.2910474658685001        0.0004724191657439        0.1232720701777427       -0.3034110000000000
N       -0.0002509582932222       -0.9126580741202452       -0.3844981144509628        0.1979110000000000
N       -0.0010864476150701       -0.6468952466265155       -0.9237845281815247        0.1055000000000000

        RMSE         6.951797132E-01 kcal/mol
         MAE         4.753490011E-01 kcal/mol
     max. AE         4.242523941E+00 kcal/mol

Coordinates in bohr
s                   x[bohr]                   y[bohr]                   z[bohr]                      q[e]
local coordinates in angstrom
s                      x[a]                      y[a]                       z[a                      q[e]
x        0.5297139152445689        0.0007254162493223        0.1893310392985539        0.1979110000000000
x       -0.5500000000000000       -0.0029993872684529        0.5500000000000000        0.1055000000000000
x       -0.0060187352507891        0.5500000000000000        0.0063012150470067       -0.3034110000000000
x       -0.0057754199503405       -0.5500000000000000        0.0069878358978866       -0.3034110000000000
x       -0.5271645419836782        0.0004742424431024        0.1887336815499946        0.1979110000000000
x        0.5500000000000000        0.0020530884421393        0.5499990000000000        0.1055000000000000
