6
s                      x[A]                      y[A]                      z[A]                      q[e]
N        1.0869917468503822       -0.3764117550000118        0.0000501692699252        0.1979110000000000
N        0.8345545959898364       -0.8882815089236095       -0.0014587284103810        0.1055000000000000
O        0.0082389419088788        0.1276959488602988       -0.2911017902184498       -0.3034110000000000
O        0.0079138707880269        0.1272642225828717        0.2911017902184498       -0.3034110000000000
N       -1.0810612941309694       -0.2771463170885620       -0.0007070944817557        0.1979110000000000
N       -0.8451432055075495       -0.8029253832150631        0.0014824674499128        0.1055000000000000

        RMSE         7.346367257E-01 kcal/mol
         MAE         4.988610948E-01 kcal/mol
     max. AE         4.492478670E+00 kcal/mol

Coordinates in bohr
s                   x[bohr]                   y[bohr]                   z[bohr]                      q[e]
local coordinates in angstrom
s                      x[a]                      y[a]                       z[a                      q[e]
x        0.5561643284313504       -0.0000948061800727        0.2801816838637023        0.1979110000000000
x       -0.4969161853568949        0.0027565971870445        0.5130825327614730        0.1055000000000000
x        0.0242011774967068        0.5501026581433486        0.0005518252414731       -0.3034110000000000
x        0.0231803958013188       -0.5501026581433486        0.0005829006786371       -0.3034110000000000
x       -0.5539564066421008        0.0013362149153409        0.2910552065059164        0.1979110000000000
x        0.5162568877558442       -0.0028014574702411        0.4925436714111129        0.1055000000000000
