6
s                      x[A]                      y[A]                      z[A]                      q[e]
N        1.1144417234332522       -0.3816394725987122       -0.0018810645768414        0.1979110000000000
N        0.8892768710747472       -0.8509578781126492        0.0027390930955484        0.1055000000000000
O        0.0136107178485826        0.1539965584508086       -0.2910474658685001       -0.3034110000000000
O        0.0120614156231185        0.1523932156174332        0.2910474658685001       -0.3034110000000000
N       -1.0955983879877957       -0.1518620919508325       -0.0009522696479866        0.1979110000000000
N       -0.9210702713760462       -0.6461768293620508        0.0023798075584075        0.1055000000000000

        RMSE         7.392613944E-01 kcal/mol
         MAE         4.992677210E-01 kcal/mol
     max. AE         4.520192195E+00 kcal/mol

Coordinates in bohr
s                   x[bohr]                   y[bohr]                   z[bohr]                      q[e]
local coordinates in angstrom
s                      x[a]                      y[a]                       z[a                      q[e]
x        0.5500000000000000        0.0035546968745304        0.3238490427936626        0.1979110000000000
x       -0.4129750802863464       -0.0051761357827189        0.5245753885073149        0.1055000000000000
x        0.0904213762054333        0.5500000000000000       -0.0367652846467295       -0.3034110000000000
x        0.0862361079222439       -0.5500000000000000       -0.0372505223219280       -0.3034110000000000
x       -0.5500000000000000        0.0017995288322809        0.3360321888411881        0.1979110000000000
x        0.4292382979100592       -0.0044971845166846        0.4858534425679106        0.1055000000000000
