6
s                      x[A]                      y[A]                      z[A]                      q[e]
N        1.0904878359220733       -0.4006618987867421       -0.0017208646981141        0.1979110000000000
N        0.8511951960553218       -0.8804664556903322        0.0019708436079731        0.1055000000000000
O        0.0155767379942640        0.1421287136210044       -0.2910474658685001       -0.3034110000000000
O        0.0146374070774487        0.1417002956529166        0.2910474658685001       -0.3034110000000000
N       -1.0840524041157480       -0.1906464838575533       -0.0005519272015166        0.1979110000000000
N       -0.8561257116983159       -0.7007782153090601        0.0018861964978971        0.1055000000000000

        RMSE         7.294975321E-01 kcal/mol
         MAE         4.936081708E-01 kcal/mol
     max. AE         4.468913192E+00 kcal/mol

Coordinates in bohr
s                   x[bohr]                   y[bohr]                   z[bohr]                      q[e]
local coordinates in angstrom
s                      x[a]                      y[a]                       z[a                      q[e]
x        0.5500000000000000        0.0032519629784043        0.3010344063013732        0.1979110000000000
x       -0.4389498284316853       -0.0037243546551783        0.5214075322656609        0.1055000000000000
x        0.0661270105585264        0.5500000000000000       -0.0157669197544959       -0.3034110000000000
x        0.0643796985181328       -0.5500000000000000       -0.0166348157037319       -0.3034110000000000
x       -0.5500000000000000        0.0010429912520567        0.3355899714521993        0.1979110000000000
x        0.4992641797108150       -0.0035643947998232        0.4533924078154913        0.1055000000000000
