6
s                      x[A]                      y[A]                      z[A]                      q[e]
N        1.1409146208681225       -0.3178485705400377        0.0010710626443297        0.1979110000000000
N        0.9548911852407030       -0.7900776247803525       -0.0023579373392656        0.1055000000000000
O        0.0064193879993024        0.1520435127917144       -0.2910474658685001       -0.3034110000000000
O        0.0059535758913689        0.1536588084349491        0.2910474658685001       -0.3034110000000000
N       -1.1302408988457913       -0.1996641382861640        0.0003463264222143        0.1979110000000000
N       -0.9700632746883268       -0.6838232314260472       -0.0009845098055345        0.1055000000000000

        RMSE         7.616479593E-01 kcal/mol
         MAE         5.165198338E-01 kcal/mol
     max. AE         4.636410646E+00 kcal/mol

Coordinates in bohr
s                   x[bohr]                   y[bohr]                   z[bohr]                      q[e]
local coordinates in angstrom
s                      x[a]                      y[a]                       z[a                      q[e]
x        0.5500000000000000       -0.0020240150609919        0.3249816844941791        0.1979110000000000
x       -0.3859438950997793        0.0044558557922027        0.5345841042991056        0.1055000000000000
x        0.0824021092113937        0.5500000000000000       -0.0411864032477044       -0.3034110000000000
x        0.0844352166894453       -0.5500000000000000       -0.0436274845448467       -0.3034110000000000
x       -0.5500000000000000       -0.0006544620879948        0.3297195792187835        0.1979110000000000
x        0.3956054194312980        0.0018604539002879        0.5155855150972407        0.1055000000000000
