6
s                      x[A]                      y[A]                      z[A]                      q[e]
N        1.0108908121165474       -0.4555272082795289       -0.0006872457768276        0.1979110000000000
N        0.7220609332763873       -0.9775618863281702        0.0008798611970281        0.1055000000000000
O        0.0137909914470890        0.1198651101607247       -0.2910290404931235       -0.3034110000000000
O        0.0132433993773497        0.1198259696990980        0.2910290404931235       -0.3034110000000000
N       -1.0052184846467007       -0.2721992193739870        0.0000718490068361        0.1979110000000000
N       -0.7553244468605909       -0.8215185913492649       -0.0005686469436145        0.1055000000000000

        RMSE         7.075823184E-01 kcal/mol
         MAE         4.872444257E-01 kcal/mol
     max. AE         4.157763148E+00 kcal/mol

Coordinates in bohr
s                   x[bohr]                   y[bohr]                   z[bohr]                      q[e]
local coordinates in angstrom
s                      x[a]                      y[a]                       z[a                      q[e]
x        0.5459461046248180        0.0012987062990817        0.2279193528720498        0.1979110000000000
x       -0.5416279410310381       -0.0016626966908007        0.5250352913426468        0.1055000000000000
x        0.0105626966610544        0.5499651810867796        0.0260892688415879       -0.3034110000000000
x        0.0097878277483687       -0.5499651810867796        0.0253994442214207       -0.3034110000000000
x       -0.5538359225474778       -0.0001357749453064        0.2485787838577380        0.1979110000000000
x        0.5580145524891122        0.0010745869855100        0.5022834463925392        0.1055000000000000
