6
s                      x[A]                      y[A]                      z[A]                      q[e]
N        1.0308812725298466       -0.4508825799129070       -0.0005643297564669        0.1979110000000000
N        0.7279987142793449       -0.9648593562530889        0.0001401773889890        0.1055000000000000
O        0.0141929860765608        0.1211234202564925       -0.2910611214617688       -0.3034110000000000
O        0.0131927148006044        0.1205633744326882        0.2910611214617688       -0.3034110000000000
N       -1.0196700993396204       -0.2626177108306162       -0.0001393608850821        0.1979110000000000
N       -0.7714754300740071       -0.8020173274328090        0.0000355274740052        0.1055000000000000

        RMSE         7.098540272E-01 kcal/mol
         MAE         4.850368493E-01 kcal/mol
     max. AE         4.263813350E+00 kcal/mol

Coordinates in bohr
s                   x[bohr]                   y[bohr]                   z[bohr]                      q[e]
local coordinates in angstrom
s                      x[a]                      y[a]                       z[a                      q[e]
x        0.5490681879400654        0.0010664286841688        0.2541560445170035        0.1979110000000000
x       -0.5500807959163012       -0.0002648968741710        0.5048532524451730        0.1055000000000000
x        0.0159059844404510        0.5500258053313587        0.0218691534947766       -0.3034110000000000
x        0.0138387307310950       -0.5500258053313587        0.0212214391320060       -0.3034110000000000
x       -0.5497629029105155        0.0002633539054067        0.2675790799739843        0.1979110000000000
x        0.5498266005374717       -0.0000671371957992        0.4909417913322613        0.1055000000000000
