6
s                      x[A]                      y[A]                      z[A]                      q[e]
N        1.0660752712042947       -0.3475846555971866       -0.0005534845024149        0.1979110000000000
N        0.8022564557479430       -0.8457933009974528        0.0003226871939778        0.1055000000000000
O        0.0103308355557679        0.1457644989410444       -0.2914120458523350       -0.3034110000000000
O        0.0091353604430267        0.1447471596925961        0.2914120458523350       -0.3034110000000000
N       -1.0567045687546535       -0.2436343927838887       -0.0009272471865538        0.1979110000000000
N       -0.8254662063447237       -0.7530402489965874        0.0015421756114870        0.1055000000000000

        RMSE         7.063258498E-01 kcal/mol
         MAE         4.739567353E-01 kcal/mol
     max. AE         4.496140149E+00 kcal/mol

Coordinates in bohr
s                   x[bohr]                   y[bohr]                   z[bohr]                      q[e]
local coordinates in angstrom
s                      x[a]                      y[a]                       z[a                      q[e]
x        0.5563671485942905        0.0010459341242495        0.3077527434675176        0.1979110000000000
x       -0.4927793856816152       -0.0006097904208104        0.4927381401230377        0.1055000000000000
x        0.0663961973607456        0.5506889563202719       -0.0269510171464304       -0.3034110000000000
x        0.0634914197423768       -0.5506889563202719       -0.0275525737016267       -0.3034110000000000
x       -0.5512627423154299        0.0017522432331880        0.3140899044269645        0.1979110000000000
x        0.4922174044088479       -0.0029142895430709        0.4837050474834541        0.1055000000000000
