6
s                      x[A]                      y[A]                      z[A]                      q[e]
N        1.1055384896318046       -0.3021541490191408        0.0004784234921028        0.1979110000000000
N        0.8981345946185229       -0.7710514110089919       -0.0026729478018079        0.1055000000000000
O        0.0080707573682039        0.1628615527649753       -0.2910474658685001       -0.3034110000000000
O        0.0054843230500978        0.1640697075163763        0.2910474658685001       -0.3034110000000000
N       -1.0952321899244155       -0.1824286472650132        0.0003805745572893        0.1979110000000000
N       -0.9129343867755428       -0.6643786185370553        0.0008928262093708        0.1055000000000000

        RMSE         7.216142945E-01 kcal/mol
         MAE         4.850679423E-01 kcal/mol
     max. AE         4.446086768E+00 kcal/mol

Coordinates in bohr
s                   x[bohr]                   y[bohr]                   z[bohr]                      q[e]
local coordinates in angstrom
s                      x[a]                      y[a]                       z[a                      q[e]
x        0.5500000000000000       -0.0009040893720595        0.3407111646686471        0.1979110000000000
x       -0.4030166537241616        0.0050511392930615        0.5154235433517190        0.1055000000000000
x        0.1091849999777192        0.5500000000000000       -0.0558885467248628       -0.3034110000000000
x        0.1083214397016087       -0.5500000000000000       -0.0612135699376522       -0.3034110000000000
x       -0.5500000000000000       -0.0007191816835942        0.3469082531282133        0.1979110000000000
x        0.4128272464562981       -0.0016871970133416        0.4922042143922873        0.1055000000000000
