6
s                      x[A]                      y[A]                      z[A]                      q[e]
N       -0.0010697510970382        1.1356163135086041       -0.2191540838902148        0.1979110000000000
N        0.0014194456821014        0.9891910220085542       -0.6841589741664399        0.1055000000000000
O       -0.2910474658685001        0.0007529590488894        0.1687984310095661       -0.3034110000000000
O        0.2910474658685001       -0.0005470812477863        0.1690660037143272       -0.3034110000000000
N        0.0004226839665672       -1.1351006962235228       -0.2188590855251958        0.1979110000000000
N       -0.0010795640297615       -0.9883596988858696       -0.6853515674946304        0.1055000000000000

        RMSE         7.508186869E-01 kcal/mol
         MAE         5.064579169E-01 kcal/mol
     max. AE         4.444967076E+00 kcal/mol

Coordinates in bohr
s                   x[bohr]                   y[bohr]                   z[bohr]                      q[e]
local coordinates in angstrom
s                      x[a]                      y[a]                       z[a                      q[e]
x        0.5500000000000000        0.0020215365958102        0.3454889868089399        0.1979110000000000
x       -0.3501333297013304       -0.0026823635891353        0.5416895462195702        0.1055000000000000
x        0.1213489880004302        0.5500000000000000       -0.0677876801364804       -0.3034110000000000
x        0.1205678772601511       -0.5500000000000000       -0.0701711672151909       -0.3034110000000000
x       -0.5500000000000000       -0.0007987569344342        0.3443664111998883        0.1979110000000000
x        0.3528696172034855        0.0020400803511447        0.5414451348604959        0.1055000000000000
