6
s                      x[A]                      y[A]                      z[A]                      q[e]
N        1.0940180624170572       -0.2664590406403952       -0.0008739461843276        0.1979110000000000
N        0.8646627766495421       -0.7780528672087130        0.0009264884347937        0.1055000000000000
O       -0.0058948877226541        0.1307199226120274       -0.2910759012803793       -0.3034110000000000
O       -0.0072962545051704        0.1303630462088684        0.2910759012803793       -0.3034110000000000
N       -1.1009062047079541       -0.3692281056512096       -0.0000282408712659        0.1979110000000000
N       -0.8506887070243634       -0.8665543460873145        0.0000423659549280        0.1055000000000000

        RMSE         7.408510311E-01 kcal/mol
         MAE         5.028773206E-01 kcal/mol
     max. AE         4.522928821E+00 kcal/mol

Coordinates in bohr
s                   x[bohr]                   y[bohr]                   z[bohr]                      q[e]
local coordinates in angstrom
s                      x[a]                      y[a]                       z[a                      q[e]
x        0.5492319042896270        0.0016515189367681        0.3072868149356509        0.1979110000000000
x       -0.4953870400886444       -0.0017508094001641        0.4841244073868438        0.1055000000000000
x        0.0183177007252198        0.5500537351407164       -0.0256405953855392       -0.3034110000000000
x        0.0162855192365896       -0.5500537351407164       -0.0274676181338691       -0.3034110000000000
x       -0.5516631383579806        0.0000533675122369        0.2981539160882676        0.1979110000000000
x        0.4807611198084487       -0.0000800600518573        0.5004502065821725        0.1055000000000000
