6
s                      x[A]                      y[A]                      z[A]                      q[e]
N       -0.0006485084169187        1.0027057940413613       -0.3155811146912101        0.1979110000000000
N        0.0008783640449159        0.7411636212146235       -0.8438463249191290        0.1055000000000000
O       -0.2910715585732627       -0.0004081998292811        0.1425449088408357       -0.3034110000000000
O        0.2910715585732627       -0.0010239073386334        0.1419197267858155       -0.3034110000000000
N       -0.0003909304411352       -1.0024922730480819       -0.3135745851472319        0.1979110000000000
N        0.0001478193092307       -0.7431367020081143       -0.8448231849520244        0.1055000000000000

        RMSE         6.771375562E-01 kcal/mol
         MAE         4.599590258E-01 kcal/mol
     max. AE         4.069479719E+00 kcal/mol

Coordinates in bohr
s                   x[bohr]                   y[bohr]                   z[bohr]                      q[e]
local coordinates in angstrom
s                      x[a]                      y[a]                       z[a                      q[e]
x        0.5540017383887061        0.0012255032980306        0.2677003412113663        0.1979110000000000
x       -0.5337925018498026       -0.0016598674833403        0.5075670084625017        0.1055000000000000
x        0.0417849758530338        0.5500455286136230       -0.0345554103294461       -0.3034110000000000
x        0.0401352558321832       -0.5500455286136230       -0.0347226206356765       -0.3034110000000000
x       -0.5567051672602474        0.0007387514678499        0.2650111103198469        0.1979110000000000
x        0.5328965877624796       -0.0002793380105004        0.5116299350465852        0.1055000000000000
