6
s                      x[A]                      y[A]                      z[A]                      q[e]
N        1.0439503010381475       -0.4077126992963613        0.0002144511953128        0.1979110000000000
N        0.7760554669149314       -0.9382619761097428       -0.0016556552980161        0.1055000000000000
O        0.0081096991211250        0.1156145085432667       -0.2910751910298046       -0.3034110000000000
O        0.0077704831710398        0.1154164080518719        0.2910751910298046       -0.3034110000000000
N       -1.0406619444019580       -0.3168147510129356       -0.0004256837220284        0.1979110000000000
N       -0.7856216338539623       -0.8600057148343884        0.0009233653893600        0.1055000000000000

        RMSE         7.249468147E-01 kcal/mol
         MAE         4.980434398E-01 kcal/mol
     max. AE         4.287353888E+00 kcal/mol

Coordinates in bohr
s                   x[bohr]                   y[bohr]                   z[bohr]                      q[e]
local coordinates in angstrom
s                      x[a]                      y[a]                       z[a                      q[e]
x        0.5527446185060398       -0.0004052540264183        0.2388246008031274        0.1979110000000000
x       -0.5334875110220310        0.0031287350714138        0.5244450566133310        0.1055000000000000
x       -0.0044866378384540        0.5500523929616499        0.0244419808313978       -0.3034110000000000
x       -0.0051918636818300       -0.5500523929616499        0.0242102222441645       -0.3034110000000000
x       -0.5523498461252530        0.0008044256506992        0.2523144279330154        0.1979110000000000
x        0.5531328333026977       -0.0017449076996172        0.5050110297379433        0.1055000000000000
