6
s                      x[A]                      y[A]                      z[A]                      q[e]
N        0.9252780079302627       -0.5001686335630461        0.0008805839005268        0.1979110000000000
N        0.6604149544120664       -1.0230812144275450       -0.0014516508748278        0.1055000000000000
O        0.0096404512420166        0.0830118736018940       -0.2912950366963622       -0.3034110000000000
O        0.0099763040397785        0.0839130456763903        0.2912950366963622       -0.3034110000000000
N       -0.9253477883873923       -0.4229656928994737       -0.0004424059185848        0.1979110000000000
N       -0.6743074618206166       -0.9503921516643848        0.0005590634639327        0.1055000000000000

        RMSE         7.555271981E-01 kcal/mol
         MAE         5.167418999E-01 kcal/mol
     max. AE         5.166629130E+00 kcal/mol

Coordinates in bohr
s                   x[bohr]                   y[bohr]                   z[bohr]                      q[e]
local coordinates in angstrom
s                      x[a]                      y[a]                       z[a                      q[e]
x        0.4907467022790115       -0.0016640624024831        0.1658884501712237        0.1979110000000000
x       -0.5414207013998293        0.0027432225832058        0.5678991850754755        0.1055000000000000
x       -0.0626328057894625        0.5504678410613124        0.0972125024111250       -0.3034110000000000
x       -0.0610237484343088       -0.5504678410613124        0.0963676109355731       -0.3034110000000000
x       -0.4937783587614604        0.0008360260224070        0.1776373787183729        0.1979110000000000
x        0.5437884695861612       -0.0010564768335826        0.5543363205724745        0.1055000000000000
