6
s                      x[A]                      y[A]                      z[A]                      q[e]
N       -0.0006489340844688        0.8929190548509083       -0.4677346421850423        0.1979110000000000
N        0.0006672942825879        0.6245629360363243       -0.9792410327519876        0.1055000000000000
O       -0.2910474658685001        0.0008180738899067        0.0858759636339707       -0.3034110000000000
O        0.2910474658685001        0.0000120498450397        0.0857439923073802       -0.3034110000000000
N       -0.0012609668631925       -0.8914924292629356       -0.4692543804084690        0.1979110000000000
N        0.0023130938959498       -0.6245625804060222       -0.9792406408902664        0.1055000000000000

        RMSE         7.412195311E-01 kcal/mol
         MAE         5.079882322E-01 kcal/mol
     max. AE         5.055397317E+00 kcal/mol

Coordinates in bohr
s                   x[bohr]                   y[bohr]                   z[bohr]                      q[e]
local coordinates in angstrom
s                      x[a]                      y[a]                       z[a                      q[e]
x        0.4751300920305994        0.0012263076931208        0.1750231691803971        0.1979110000000000
x       -0.5500000000000000       -0.0012610034391750        0.5500000000000000        0.1055000000000000
x       -0.0701697897942400        0.5500000000000000        0.0796189985563682       -0.3034110000000000
x       -0.0714653113074143       -0.5500000000000000        0.0787800409279063       -0.3034110000000000
x       -0.4712036886745825        0.0023828820247115        0.1753380512051299        0.1979110000000000
x        0.5500000000000000       -0.0043711139658134        0.5499990000000000        0.1055000000000000
