6
s                      x[A]                      y[A]                      z[A]                      q[e]
N        0.9291886362032837       -0.3434743272490686       -0.0003201203327259        0.1979110000000000
N        0.6815037493769360       -0.8921229414191649       -0.0001257260290850        0.1055000000000000
O       -0.0109395339649058        0.1002027766486120       -0.2910474658685001       -0.3034110000000000
O       -0.0120891263032256        0.1004720179661569        0.2910474658685001       -0.3034110000000000
N       -0.9206718365637243       -0.5163525746246352        0.0003882371264674        0.1979110000000000
N       -0.6397865278220031       -1.0309255123709244       -0.0005020234064120        0.1055000000000000

        RMSE         7.314422129E-01 kcal/mol
         MAE         5.023455955E-01 kcal/mol
     max. AE         4.597915014E+00 kcal/mol

Coordinates in bohr
s                   x[bohr]                   y[bohr]                   z[bohr]                      q[e]
local coordinates in angstrom
s                      x[a]                      y[a]                       z[a                      q[e]
x        0.5283031868109083        0.0006049397560424        0.1876681397293642        0.1979110000000000
x       -0.5500000000000000        0.0002375877618120        0.5500000000000000        0.1055000000000000
x       -0.0658893500579655        0.5500000000000000        0.0329570867935690       -0.3034110000000000
x       -0.0669944302539791       -0.5500000000000000        0.0310187749148153       -0.3034110000000000
x       -0.4906874712112094       -0.0007336618407582        0.1701571808772462        0.1979110000000000
x        0.5500000000000000        0.0009486867466881        0.5499990000000000        0.1055000000000000
