6
s                      x[A]                      y[A]                      z[A]                      q[e]
N       -0.0003367422114918        1.0667645435926618       -0.2623405724348238        0.1979110000000000
N       -0.0002732914547676        0.8285904238731391       -0.7488215136054602        0.1055000000000000
O       -0.2910260034479360        0.0012120422542178        0.1583179921344720       -0.3034110000000000
O        0.2910260034479360        0.0000430110193121        0.1571327746115924       -0.3034110000000000
N       -0.0014110834196950       -1.0667094732064653       -0.2624502192551018        0.1979110000000000
N        0.0025854521257451       -0.8274383204054109       -0.7500057778979806        0.1055000000000000

        RMSE         6.953790949E-01 kcal/mol
         MAE         4.652244333E-01 kcal/mol
     max. AE         4.320610165E+00 kcal/mol

Coordinates in bohr
s                   x[bohr]                   y[bohr]                   z[bohr]                      q[e]
local coordinates in angstrom
s                      x[a]                      y[a]                       z[a                      q[e]
x        0.5498609018895877        0.0006363505546005        0.3396870144733839        0.1979110000000000
x       -0.4645157546519840        0.0005164460019387        0.4766428970906418        0.1055000000000000
x        0.0912001757496910        0.5499594419031446       -0.0582400890693862       -0.3034110000000000
x        0.0881103073952545       -0.5499594419031446       -0.0588312505801696       -0.3034110000000000
x       -0.5496308147767195        0.0026665612033980        0.3397157010203955        0.1979110000000000
x        0.4675863420306996       -0.0048857964281410        0.4760773241505376        0.1055000000000000
