6
s                      x[A]                      y[A]                      z[A]                      q[e]
N        0.0007197459522979        1.1302511859589703       -0.2364961916151299        0.1979110000000000
N       -0.0016218679658508        0.9570890283937441       -0.7061706423858197        0.1055000000000000
O       -0.2910991372893363        0.0014940472934583        0.1629639837304955       -0.3034110000000000
O        0.2910991372893363        0.0009090015201715        0.1622408463854633       -0.3034110000000000
N       -0.0010136614483804       -1.1312456805537767       -0.2373393736577960        0.1979110000000000
N        0.0018674372938616       -0.9538103291688993       -0.7064019905757473        0.1055000000000000

        RMSE         7.464593307E-01 kcal/mol
         MAE         5.023188160E-01 kcal/mol
     max. AE         4.563846097E+00 kcal/mol

Coordinates in bohr
s                   x[bohr]                   y[bohr]                   z[bohr]                      q[e]
local coordinates in angstrom
s                      x[a]                      y[a]                       z[a                      q[e]
x        0.5495344710161589       -0.0013601227297499        0.3464139033039828        0.1979110000000000
x       -0.3804715011065127        0.0030648862671114        0.5193981230841018        0.1055000000000000
x        0.1066974009040678        0.5500976448338939       -0.0602552388122604       -0.3034110000000000
x        0.1049576119221456       -0.5500976448338939       -0.0605059211725347       -0.3034110000000000
x       -0.5491270517886733        0.0019155425213739        0.3488438687636517        0.1979110000000000
x        0.3840173372227582       -0.0035289450418645        0.5142984510930546        0.1055000000000000
