6
s                      x[A]                      y[A]                      z[A]                      q[e]
N       -0.0004739464477800        0.9306735038480504       -0.3751610944699221        0.1979110000000000
N        0.0008368925911628        0.6568325713652666       -0.9143548991958020        0.1055000000000000
O       -0.2910795115329491       -0.0000261719853400        0.1243732079957250       -0.3034110000000000
O        0.2910795115329491       -0.0004719416491509        0.1242211486571866       -0.3034110000000000
N        0.0001608398641297       -0.9297916895238658       -0.3737295732451983        0.1979110000000000
N       -0.0014797360596808       -0.6585473256878517       -0.9166347981116175        0.1055000000000000

        RMSE         6.877324153E-01 kcal/mol
         MAE         4.689325677E-01 kcal/mol
     max. AE         4.008392297E+00 kcal/mol

Coordinates in bohr
s                   x[bohr]                   y[bohr]                   z[bohr]                      q[e]
local coordinates in angstrom
s                      x[a]                      y[a]                       z[a                      q[e]
x        0.5332042669169823        0.0008956289844377        0.2070491014656000        0.1979110000000000
x       -0.5605358382754275       -0.0015814977937225        0.5383166386745870        0.1055000000000000
x       -0.0019460202101982        0.5500605575293172        0.0017960412847060       -0.3034110000000000
x       -0.0027362891014491       -0.5500605575293172        0.0013865857895325       -0.3034110000000000
x       -0.5340047236968530       -0.0003039432932610        0.2039743442655890        0.1979110000000000
x        0.5614049491714468        0.0027962958907608        0.5436370822426397        0.1055000000000000
