6
s                      x[A]                      y[A]                      z[A]                      q[e]
N       -0.0000612240885638        1.0925699118569714       -0.2949231471556927        0.1979110000000000
N       -0.0007462383385373        0.8581553835190391       -0.7876414605617491        0.1055000000000000
O       -0.2910474658685001        0.0012665067902310        0.1414206153257712       -0.3034110000000000
O        0.2910474658685001       -0.0005894007076582        0.1427550218504124       -0.3034110000000000
N        0.0013067911528161       -1.0911692012769822       -0.2939505340673264        0.1979110000000000
N       -0.0026896334192781       -0.8588721602345813       -0.7899646210873214        0.1055000000000000

        RMSE         7.282632216E-01 kcal/mol
         MAE         4.930970649E-01 kcal/mol
     max. AE         4.490915393E+00 kcal/mol

Coordinates in bohr
s                   x[bohr]                   y[bohr]                   z[bohr]                      q[e]
local coordinates in angstrom
s                      x[a]                      y[a]                       z[a                      q[e]
x        0.5500000000000000        0.0001156967596664        0.3194376985421126        0.1979110000000000
x       -0.4674615434978777        0.0014101860841521        0.4866346234741413        0.1055000000000000
x        0.0510770878228754        0.5500000000000000       -0.0325527062740396       -0.3034110000000000
x        0.0511480518026518       -0.5500000000000000       -0.0368717220379523       -0.3034110000000000
x       -0.5500000000000000       -0.0024694773819938        0.3162151938715293        0.1979110000000000
x        0.4702950412137435        0.0050826705403143        0.4902511545050894        0.1055000000000000
