6
s                      x[A]                      y[A]                      z[A]                      q[e]
N        1.0680945227097709       -0.2272253232500722        0.0005652175235180        0.1979110000000000
N        0.8459992853012503       -0.7342841510572655       -0.0025719097150172        0.1055000000000000
O       -0.0051069474401128        0.1493394743217338       -0.2910642507137565       -0.3034110000000000
O       -0.0056129991388412        0.1485511409220706        0.2910642507137565       -0.3034110000000000
N       -1.0758486396560742       -0.3357492466772583       -0.0015980627479821        0.1979110000000000
N       -0.8261302882776759       -0.8312190470965162        0.0033948341434993        0.1055000000000000

        RMSE         7.073498242E-01 kcal/mol
         MAE         4.764911146E-01 kcal/mol
     max. AE         4.296813215E+00 kcal/mol

Coordinates in bohr
s                   x[bohr]                   y[bohr]                   z[bohr]                      q[e]
local coordinates in angstrom
s                      x[a]                      y[a]                       z[a                      q[e]
x        0.5548139284419449       -0.0010681063207585        0.3228649845204927        0.1979110000000000
x       -0.4786398029191332        0.0048602049807869        0.4849527853002655        0.1055000000000000
x        0.0628373470490260        0.5500317187605930       -0.0515872472951742       -0.3034110000000000
x        0.0610670928545005       -0.5500317187605930       -0.0515912641144496       -0.3034110000000000
x       -0.5552505733157886        0.0030199009249827        0.3146887692601013        0.1979110000000000
x        0.4765665580343921       -0.0064153067725670        0.5009794256366149        0.1055000000000000
