6
s                      x[A]                      y[A]                      z[A]                      q[e]
N       -0.0010661588617766        0.9451819251343486       -0.4100777641439958        0.1979110000000000
N       -0.0003928404472450        0.6823896941146753       -0.9519577662572885        0.1055000000000000
O       -0.2910474658685001        0.0016833337576447        0.1072232474601232       -0.3034110000000000
O        0.2910474658685001       -0.0008509220567093        0.1070105608424280       -0.3034110000000000
N       -0.0013772341741647       -0.9438532216245239       -0.4113509218839793        0.1979110000000000
N        0.0046668812555233       -0.6823893184632739       -0.9519573935448725        0.1055000000000000

        RMSE         7.271225184E-01 kcal/mol
         MAE         5.001083037E-01 kcal/mol
     max. AE         4.440471647E+00 kcal/mol

Coordinates in bohr
s                   x[bohr]                   y[bohr]                   z[bohr]                      q[e]
local coordinates in angstrom
s                      x[a]                      y[a]                       z[a                      q[e]
x        0.5266900069517098        0.0020147482549877        0.1812977880094317        0.1979110000000000
x       -0.5500000000000000        0.0007423608562953        0.5500000000000000        0.1055000000000000
x       -0.0351412996132724        0.5500000000000000        0.0393474705002949       -0.3034110000000000
x       -0.0387996578116829       -0.5500000000000000        0.0362309100726106       -0.3034110000000000
x       -0.5232136189634753        0.0026025953997923        0.1812099125374060        0.1979110000000000
x        0.5500000000000000       -0.0088191274329719        0.5499990000000000        0.1055000000000000
