6
s                      x[A]                      y[A]                      z[A]                      q[e]
N        1.1161917875948109       -0.2363990972423084       -0.0008156969407125        0.1979110000000000
N        0.9111994020232921       -0.7335503915035719        0.0011581232152753        0.1055000000000000
O       -0.0051398658039881        0.1402310897766862       -0.2910831848293367       -0.3034110000000000
O       -0.0063984429638110        0.1398915266371310        0.2910831848293367       -0.3034110000000000
N       -1.1243874929645334       -0.3460506698926967       -0.0002969334406398        0.1979110000000000
N       -0.8972860812402389       -0.8290057553969330        0.0003237217550154        0.1055000000000000

        RMSE         7.517634774E-01 kcal/mol
         MAE         5.079602033E-01 kcal/mol
     max. AE         4.603522672E+00 kcal/mol

Coordinates in bohr
s                   x[bohr]                   y[bohr]                   z[bohr]                      q[e]
local coordinates in angstrom
s                      x[a]                      y[a]                       z[a                      q[e]
x        0.5485097311243408        0.0015414438193204        0.3267947920958250        0.1979110000000000
x       -0.4546532682770703       -0.0021885356964049        0.4891189178342756        0.1055000000000000
x        0.0443948186211856        0.5500674990534673       -0.0387151131935752       -0.3034110000000000
x        0.0426020653521846       -0.5500674990534673       -0.0404046149392343       -0.3034110000000000
x       -0.5505594211263087        0.0005611228802991        0.3187187671574065        0.1979110000000000
x        0.4402089811865153       -0.0006117454578316        0.5071094127160904        0.1055000000000000
