6
s                      x[A]                      y[A]                      z[A]                      q[e]
N       -0.0000627205973714        1.0914170455281260       -0.2922268331019790        0.1979110000000000
N       -0.0011878080832565        0.8620242803979630       -0.7915364894189976        0.1055000000000000
O       -0.2910908153392375        0.0017587330591512        0.1431499448634546       -0.3034110000000000
O        0.2910908153392375        0.0008180370605843        0.1422500398242701       -0.3034110000000000
N       -0.0006277219482538       -1.0919262644006111       -0.2926871161740309        0.1979110000000000
N        0.0011965993187032       -0.8590782832048803       -0.7922210263303974        0.1055000000000000

        RMSE         7.262526587E-01 kcal/mol
         MAE         4.902642018E-01 kcal/mol
     max. AE         4.512478561E+00 kcal/mol

Coordinates in bohr
s                   x[bohr]                   y[bohr]                   z[bohr]                      q[e]
local coordinates in angstrom
s                      x[a]                      y[a]                       z[a                      q[e]
x        0.5529426891721414        0.0001185247514570        0.3147420710320148        0.1979110000000000
x       -0.4693375199130969        0.0022446319669598        0.4968381142462022        0.1055000000000000
x        0.0542919124077343        0.5500819186273773       -0.0336525616185099       -0.3034110000000000
x        0.0518811676074620       -0.5500819186273773       -0.0341427951566402       -0.3034110000000000
x       -0.5527770735334343        0.0011862225651385        0.3160285895737616        0.1979110000000000
x        0.4735753105578624       -0.0022612449942585        0.4930030899777194        0.1055000000000000
