6
s                      x[A]                      y[A]                      z[A]                      q[e]
N        0.0008412695322596        1.1329552155761802       -0.2335411336414674        0.1979110000000000
N       -0.0019968551380860        0.9603901452240506       -0.7047683898191638        0.1055000000000000
O       -0.2916121853340506        0.0057280560155014        0.1639079578403901       -0.3034110000000000
O        0.2916121853340506        0.0053500899323075        0.1633372873508462       -0.3034110000000000
N       -0.0019951185629826       -1.1307393340853475       -0.2386393591513872        0.1979110000000000
N        0.0031936487038613       -0.9593028278741362       -0.7066251592185628        0.1055000000000000

        RMSE         7.486422400E-01 kcal/mol
         MAE         4.991351435E-01 kcal/mol
     max. AE         4.667056074E+00 kcal/mol

Coordinates in bohr
s                   x[bohr]                   y[bohr]                   z[bohr]                      q[e]
local coordinates in angstrom
s                      x[a]                      y[a]                       z[a                      q[e]
x        0.5569469248634960       -0.0015897690136626        0.3479469413318839        0.1979110000000000
x       -0.3750028840324831        0.0037735093231959        0.5234020310381311        0.1055000000000000
x        0.1123239719447611        0.5510671651276056       -0.0542935528254418       -0.3034110000000000
x        0.1110319592530686       -0.5510671651276056       -0.0543554382865352       -0.3034110000000000
x       -0.5465267752755381        0.0037702276718541        0.3492787257750933        0.1979110000000000
x        0.3790689145039323       -0.0060351213912213        0.5234319725987007        0.1055000000000000
