6
s                      x[A]                      y[A]                      z[A]                      q[e]
N        1.1137593940202295       -0.2888602018887899       -0.0011826657598882        0.1979110000000000
N        0.9250626591391631       -0.7521981590306561        0.0011159947279945        0.1055000000000000
O        0.0078212207318423        0.1690687338833800       -0.2910474658685001       -0.3034110000000000
O        0.0058313900269121        0.1685475390148832        0.2910474658685001       -0.3034110000000000
N       -1.1021990587113559       -0.1651044204570479       -0.0007978122330167        0.1979110000000000
N       -0.9389860016197993       -0.6415351330232225        0.0024360522438575        0.1055000000000000

        RMSE         7.252207128E-01 kcal/mol
         MAE         4.873651626E-01 kcal/mol
     max. AE         4.431087907E+00 kcal/mol

Coordinates in bohr
s                   x[bohr]                   y[bohr]                   z[bohr]                      q[e]
local coordinates in angstrom
s                      x[a]                      y[a]                       z[a                      q[e]
x        0.5500000000000000        0.0022349143841451        0.3453693800463856        0.1979110000000000
x       -0.3774361677642118       -0.0021089243933645        0.5288324190162521        0.1055000000000000
x        0.1239799584485300        0.5500000000000000       -0.0638966206575218       -0.3034110000000000
x        0.1210901023377837       -0.5500000000000000       -0.0664962664194755       -0.3034110000000000
x       -0.5500000000000000        0.0015076466199415        0.3507258101270881        0.1979110000000000
x        0.3892020148687173       -0.0046034715681977        0.5043809879995012        0.1055000000000000
