6
s                      x[A]                      y[A]                      z[A]                      q[e]
N       -0.0003313342743625        0.8984008693948361       -0.4044358547613583        0.1979110000000000
N        0.0011390703609776        0.6248573649857732       -0.9355995115252461        0.1055000000000000
O       -0.2910722549053043        0.0005190777666072        0.1146651625232929       -0.3034110000000000
O        0.2910722549053043        0.0004559085561747        0.1147348314781718       -0.3034110000000000
N        0.0001852371425248       -0.8965841640170626       -0.4049019268122335        0.1979110000000000
N       -0.0017255493122079       -0.6255153174214123       -0.9360217709497953        0.1055000000000000

        RMSE         6.983658911E-01 kcal/mol
         MAE         4.755933429E-01 kcal/mol
     max. AE         4.410545252E+00 kcal/mol

Coordinates in bohr
s                   x[bohr]                   y[bohr]                   z[bohr]                      q[e]
local coordinates in angstrom
s                      x[a]                      y[a]                       z[a                      q[e]
x        0.5118289134093175        0.0006261310345224        0.1904743994018645        0.1979110000000000
x       -0.5586968383859130       -0.0021525310198740        0.5492292675335193        0.1055000000000000
x       -0.0198770163747213        0.5500468444904740        0.0218285365572228       -0.3034110000000000
x       -0.0198707329136596       -0.5500468444904740        0.0216509318925091       -0.3034110000000000
x       -0.5087544464668099       -0.0003500474676343        0.1887110562220187        0.1979110000000000
x        0.5583624011778738        0.0032608156160450        0.5506682958148303        0.1055000000000000
