6
s                      x[A]                      y[A]                      z[A]                      q[e]
N        1.0465812201133162       -0.4410158324829367       -0.0006783974746952        0.1979110000000000
N        0.7459114353552729       -0.9504134676393493        0.0003609941753068        0.1055000000000000
O        0.0149071421552031        0.1249430100639879       -0.2910735003107515       -0.3034110000000000
O        0.0137352254447659        0.1242422985399545        0.2910735003107515       -0.3034110000000000
N       -1.0330461757544407       -0.2495315566531753       -0.0001862867497333        0.1979110000000000
N       -0.7889928944553043       -0.7821934113571617        0.0001701450214708        0.1055000000000000

        RMSE         7.121925381E-01 kcal/mol
         MAE         4.850935718E-01 kcal/mol
     max. AE         4.325233995E+00 kcal/mol

Coordinates in bohr
s                   x[bohr]                   y[bohr]                   z[bohr]                      q[e]
local coordinates in angstrom
s                      x[a]                      y[a]                       z[a                      q[e]
x        0.5535612348007817        0.0012819854313761        0.2682393910667997        0.1979110000000000
x       -0.5400637769598688       -0.0006821801242154        0.4994493160620550        0.1055000000000000
x        0.0253995286736881        0.5500491979656843        0.0149366788857748       -0.3034110000000000
x        0.0229272456317631       -0.5500491979656843        0.0141979923837710       -0.3034110000000000
x       -0.5492688899148561        0.0003520309377976        0.2817151666790778        0.1979110000000000
x        0.5395924496510816       -0.0003215274921899        0.4824492432808256        0.1055000000000000
