6
s                      x[A]                      y[A]                      z[A]                      q[e]
N        0.9620383143492112       -0.3201806007138304        0.0001603311234066        0.1979110000000000
N        0.7048555508533668       -0.8684748859000787       -0.0006166998136865        0.1055000000000000
O       -0.0109068834896500        0.1030409948149566       -0.2910583444211978       -0.3034110000000000
O       -0.0118746322310557        0.1034901105354843        0.2910583444211978       -0.3034110000000000
N       -0.9621901519664066       -0.5023274577434242        0.0009288794080521        0.1979110000000000
N       -0.6547468780807139       -1.0059060539375249       -0.0005140923319030        0.1055000000000000

        RMSE         7.184137213E-01 kcal/mol
         MAE         4.945252339E-01 kcal/mol
     max. AE         4.132594403E+00 kcal/mol

Coordinates in bohr
s                   x[bohr]                   y[bohr]                   z[bohr]                      q[e]
local coordinates in angstrom
s                      x[a]                      y[a]                       z[a                      q[e]
x        0.5350671087071532       -0.0003029819126255        0.2192023243860604        0.1979110000000000
x       -0.5675914291580284        0.0011653937494884        0.5256369131311658        0.1055000000000000
x       -0.0562174402762139        0.5500205574852401        0.0211165425892972       -0.3034110000000000
x       -0.0567652067059043       -0.5500205574852401        0.0191762617074005       -0.3034110000000000
x       -0.5070657719659266       -0.0017553276847959        0.2122133567922901        0.1979110000000000
x        0.5674206045193841        0.0009714937104945        0.5098915277330889        0.1055000000000000
