6
s                      x[A]                      y[A]                      z[A]                      q[e]
N        1.0316862797979511       -0.2658253155828880        0.0002559036824507        0.1979110000000000
N        0.7878198335342681       -0.7948430836044653       -0.0024360375597088        0.1055000000000000
O       -0.0059082269887321        0.1387709636069326       -0.2910685037244186       -0.3034110000000000
O       -0.0064982360825517        0.1379610239560680        0.2910685037244186       -0.3034110000000000
N       -1.0367512771594523       -0.3648768210952409       -0.0011183692323952        0.1979110000000000
N       -0.7689308620356428       -0.8844692292000796        0.0023119107760747        0.1055000000000000

        RMSE         6.957937227E-01 kcal/mol
         MAE         4.730177015E-01 kcal/mol
     max. AE         4.168416203E+00 kcal/mol

Coordinates in bohr
s                   x[bohr]                   y[bohr]                   z[bohr]                      q[e]
local coordinates in angstrom
s                      x[a]                      y[a]                       z[a                      q[e]
x        0.5574147446800453       -0.0004835878743279        0.2839321005303646        0.1979110000000000
x       -0.5229885434991957        0.0046034438191782        0.4948834166934830        0.1055000000000000
x        0.0306785880156895        0.5500397557859529       -0.0358888023019972       -0.3034110000000000
x        0.0287850014938158       -0.5500397557859529       -0.0358978903027491       -0.3034110000000000
x       -0.5564077310391440        0.0021134115563655        0.2732738738541229        0.1979110000000000
x        0.5221200350670188       -0.0043688781932758        0.5120732791692717        0.1055000000000000
