6
s                      x[A]                      y[A]                      z[A]                      q[e]
N       -0.0016312169556521        1.0621730909799125       -0.3763878394720336        0.1979110000000000
N        0.0016075755525385        0.7949537105312739       -0.9113277172534083        0.1055000000000000
O       -0.2910474658685001        0.0009627503539351        0.1063410361287484       -0.3034110000000000
O        0.2910474658685001       -0.0008834246098989        0.1063627744273023       -0.3034110000000000
N       -0.0010655699604897       -1.0618532070777791       -0.3761215584169170        0.1979110000000000
N        0.0030504411420968       -0.7953259074090087       -0.9116375452149074        0.1055000000000000

        RMSE         7.416274325E-01 kcal/mol
         MAE         5.097954042E-01 kcal/mol
     max. AE         4.368498916E+00 kcal/mol

Coordinates in bohr
s                   x[bohr]                   y[bohr]                   z[bohr]                      q[e]
local coordinates in angstrom
s                      x[a]                      y[a]                       z[a                      q[e]
x        0.5500000000000000        0.0030825532973855        0.2470796408504366        0.1979110000000000
x       -0.5500000000000000       -0.0030378775202793        0.5057193014114961        0.1055000000000000
x       -0.0319000292944506        0.5500000000000000        0.0289217425552188       -0.3034110000000000
x       -0.0341004808618804       -0.5500000000000000        0.0262141269857309       -0.3034110000000000
x       -0.5500000000000000        0.0020136353928405        0.2462931166978518        0.1979110000000000
x        0.5500000000000000       -0.0057644983203916        0.5066344516641431        0.1055000000000000
