6
s                      x[A]                      y[A]                      z[A]                      q[e]
N        1.0454689749167045       -0.2322560952411916       -0.0002345477300751        0.1979110000000000
N        0.8083587405266670       -0.7658774735778601       -0.0007290004706348        0.1055000000000000
O       -0.0138209900219722        0.1301742984810614       -0.2910368573373411       -0.3034110000000000
O       -0.0147757066047217        0.1300991115597782        0.2910368573373411       -0.3034110000000000
N       -1.0556090870550794       -0.4269517075066867       -0.0005482951564327        0.1979110000000000
N       -0.7793622677057129       -0.9354675935597538        0.0015973724451151        0.1055000000000000

        RMSE         7.130740236E-01 kcal/mol
         MAE         4.864031971E-01 kcal/mol
     max. AE         4.194096115E+00 kcal/mol

Coordinates in bohr
s                   x[bohr]                   y[bohr]                   z[bohr]                      q[e]
local coordinates in angstrom
s                      x[a]                      y[a]                       z[a                      q[e]
x        0.5538354267796421        0.0004432309731897        0.2907067517444375        0.1979110000000000
x       -0.5329711252488778        0.0013776112348296        0.4817259774317790        0.1055000000000000
x        0.0048963645626827        0.5499799527815163       -0.0347699995886614       -0.3034110000000000
x        0.0037715290382039       -0.5499799527815163       -0.0361877090467715       -0.3034110000000000
x       -0.5555697133950162        0.0010361276815729        0.2681619709237566        0.1979110000000000
x        0.5095179601175914       -0.0030185964416205        0.5162353473715484        0.1055000000000000
