6
s                      x[A]                      y[A]                      z[A]                      q[e]
N        0.9614097793910198       -0.4671496112503209        0.0006978014738845        0.1979110000000000
N        0.6922176412870804       -1.0042266666075954       -0.0026889154325514        0.1055000000000000
O        0.0085519184205005        0.0955011666098142       -0.2910600088069582       -0.3034110000000000
O        0.0082154773526684        0.0957757633222714        0.2910600088069582       -0.3034110000000000
N       -0.9608627220445519       -0.3838507538100677       -0.0005781772490690        0.1979110000000000
N       -0.7070956123622746       -0.9348887196622451        0.0009889599832991        0.1055000000000000

        RMSE         7.381509652E-01 kcal/mol
         MAE         5.081737281E-01 kcal/mol
     max. AE         4.617180577E+00 kcal/mol

Coordinates in bohr
s                   x[bohr]                   y[bohr]                   z[bohr]                      q[e]
local coordinates in angstrom
s                      x[a]                      y[a]                       z[a                      q[e]
x        0.5204458099365183       -0.0013186536755825        0.1766502082682564        0.1979110000000000
x       -0.5489108889023555        0.0050813137420391        0.5578736254537944        0.1055000000000000
x       -0.0447302390721234        0.5500237027184944        0.0700792213328896       -0.3034110000000000
x       -0.0448305540203364       -0.5500237027184944        0.0692647121168193       -0.3034110000000000
x       -0.5269713953612154        0.0010925966527111        0.1863182248380326        0.1979110000000000
x        0.5596986885948354       -0.0018688635174726        0.5516193611620110        0.1055000000000000
