6
s                      x[A]                      y[A]                      z[A]                      q[e]
N        1.0905028631555349       -0.4006740976240019       -0.0017078835335199        0.1979110000000000
N        0.8511975407057532       -0.8804726254944036        0.0019738521310132        0.1055000000000000
O        0.0155469214007892        0.1421702248287885       -0.2910474658685001       -0.3034110000000000
O        0.0146200469491521        0.1417455352699966        0.2910474658685001       -0.3034110000000000
N       -1.0840519035601193       -0.1906461892320865       -0.0005422116510617        0.1979110000000000
N       -0.8561179283676339       -0.7007963343900284        0.0018841210701028        0.1055000000000000

        RMSE         7.294983138E-01 kcal/mol
         MAE         4.934931102E-01 kcal/mol
     max. AE         4.469149359E+00 kcal/mol

Coordinates in bohr
s                   x[bohr]                   y[bohr]                   z[bohr]                      q[e]
local coordinates in angstrom
s                      x[a]                      y[a]                       z[a                      q[e]
x        0.5500000000000000        0.0032274321325319        0.3010709826022885        0.1979110000000000
x       -0.4389560880027509       -0.0037300399397662        0.5214183205540627        0.1055000000000000
x        0.0661524021318612        0.5500000000000000       -0.0158601057936730       -0.3034110000000000
x        0.0644253960664090       -0.5500000000000000       -0.0167141667189493       -0.3034110000000000
x       -0.5500000000000000        0.0010246315225389        0.3355888738480816        0.1979110000000000
x        0.4993011486023725       -0.0035604728096989        0.4533971005229369        0.1055000000000000
