6
s                      x[A]                      y[A]                      z[A]                      q[e]
N       -0.0023127613057118        1.1049270634993691       -0.1872481052844345        0.1979110000000000
N        0.0029213316824817        0.9554024091149864       -0.6456604164220023        0.1055000000000000
O       -0.2910474658685001        0.0014317027280952        0.1846484361583753       -0.3034110000000000
O        0.2910474658685001       -0.0011530349700393        0.1827037276562018       -0.3034110000000000
N       -0.0015163375036248       -1.1038452309616460       -0.1866539770692864        0.1979110000000000
N        0.0044067160900350       -0.9560441753232370       -0.6474645000367406        0.1055000000000000

        RMSE         7.103282848E-01 kcal/mol
         MAE         4.749886355E-01 kcal/mol
     max. AE         4.110289878E+00 kcal/mol

Coordinates in bohr
s                   x[bohr]                   y[bohr]                   z[bohr]                      q[e]
local coordinates in angstrom
s                      x[a]                      y[a]                       z[a                      q[e]
x        0.5500000000000000        0.0043704854613515        0.3623538939088453        0.1979110000000000
x       -0.3453200107149121       -0.0055205168015133        0.5316842099910425        0.1055000000000000
x        0.1621948687780271        0.5500000000000000       -0.0859886113857944       -0.3034110000000000
x        0.1566224662612492       -0.5500000000000000       -0.0885008862305919       -0.3034110000000000
x       -0.5500000000000000        0.0028654625956113        0.3600215171123387        0.1979110000000000
x        0.3477244632418546       -0.0083274865228145        0.5343883195450996        0.1055000000000000
