6
s                      x[A]                      y[A]                      z[A]                      q[e]
N        1.1182806453348151       -0.2949280481807339       -0.0003988650021683        0.1979110000000000
N        0.9117162177089417       -0.7501095939496010        0.0002603497558242        0.1055000000000000
O        0.0076331636348394        0.1668619378092613       -0.2910413849142522       -0.3034110000000000
O        0.0063699813541634        0.1656435802987935        0.2910413849142522       -0.3034110000000000
N       -1.1057602869555525       -0.1709393320449930       -0.0009321214276150        0.1979110000000000
N       -0.9317400947993395       -0.6383214130037633        0.0011657957271530        0.1055000000000000

        RMSE         7.300184166E-01 kcal/mol
         MAE         4.889545581E-01 kcal/mol
     max. AE         4.552846580E+00 kcal/mol

Coordinates in bohr
s                   x[bohr]                   y[bohr]                   z[bohr]                      q[e]
local coordinates in angstrom
s                      x[a]                      y[a]                       z[a                      q[e]
x        0.5451183445288734        0.0007537456151283        0.3588100012293580        0.1979110000000000
x       -0.3880040339909101       -0.0004919897353375        0.5055944671657926        0.1055000000000000
x        0.1203010191925387        0.5499885086618903       -0.0619009749912038       -0.3034110000000000
x        0.1170655152782274       -0.5499885086618903       -0.0626293166533287       -0.3034110000000000
x       -0.5434628549010085        0.0017614542138631        0.3618674607732828        0.1979110000000000
x        0.3903207490002387       -0.0022030346425481        0.4894436995309661        0.1055000000000000
