6
s                      x[A]                      y[A]                      z[A]                      q[e]
N        1.0512441255111742       -0.2385867064689368       -0.0016262406086770        0.1979110000000000
N        0.7931258298025085       -0.7664914319153322        0.0017042153213257        0.1055000000000000
O       -0.0140285438910946        0.1281639024265838       -0.2910474658685001       -0.3034110000000000
O       -0.0159864511710572        0.1266082622235351        0.2910474658685001       -0.3034110000000000
N       -1.0568067351890778       -0.4319587703214087       -0.0003258285053784        0.1979110000000000
N       -0.7754870383696464       -0.9302331710301271        0.0015695577765719        0.1055000000000000

        RMSE         7.158299879E-01 kcal/mol
         MAE         4.866989923E-01 kcal/mol
     max. AE         4.268164923E+00 kcal/mol

Coordinates in bohr
s                   x[bohr]                   y[bohr]                   z[bohr]                      q[e]
local coordinates in angstrom
s                      x[a]                      y[a]                       z[a                      q[e]
x        0.5500000000000000        0.0030731493644974        0.3064391778491547        0.1979110000000000
x       -0.5500000000000000       -0.0032205002161147        0.4584880987503291        0.1055000000000000
x        0.0015251273698638        0.5500000000000000       -0.0329750785591679       -0.3034110000000000
x       -0.0029791471513956       -0.5500000000000000       -0.0344043685324777       -0.3034110000000000
x       -0.5500000000000000        0.0006157266390325        0.2761387814120302        0.1979110000000000
x        0.5069880474018695       -0.0029660343358034        0.5041907674921533        0.1055000000000000
