6
s                      x[A]                      y[A]                      z[A]                      q[e]
N        1.0519678514784168       -0.2135319263166930        0.0005190880246572        0.1979110000000000
N        0.8418799000245379       -0.7444924224608411       -0.0034288780261970        0.1055000000000000
O       -0.0144513476460359        0.1371172161510811       -0.2909944616472537       -0.3034110000000000
O       -0.0157911135621866        0.1369102371342553        0.2909944616472537       -0.3034110000000000
N       -1.0711198487765472       -0.4078940515591478       -0.0006555452577869        0.1979110000000000
N       -0.8030201570031497       -0.9304777317588946        0.0017398070995192        0.1055000000000000

        RMSE         7.125845826E-01 kcal/mol
         MAE         4.837321501E-01 kcal/mol
     max. AE         4.160531500E+00 kcal/mol

Coordinates in bohr
s                   x[bohr]                   y[bohr]                   z[bohr]                      q[e]
local coordinates in angstrom
s                      x[a]                      y[a]                       z[a                      q[e]
x        0.5543208032199800       -0.0009809342016069        0.2897948498452934        0.1979110000000000
x       -0.5041975388080573        0.0064796403871128        0.4993324803454016        0.1055000000000000
x        0.0201845173764923        0.5498998365383514       -0.0454836675939703       -0.3034110000000000
x        0.0184847656337297       -0.5498998365383514       -0.0474003818303288       -0.3034110000000000
x       -0.5731286340081851        0.0012388010000599        0.2716562106875244        0.1979110000000000
x        0.5056383062494660       -0.0032877589292184        0.5327619760191737        0.1055000000000000
