6
s                      x[A]                      y[A]                      z[A]                      q[e]
N        1.0759472684862270       -0.2086027896349725       -0.0008776513404746        0.1979110000000000
N        0.8284911445641144       -0.7254676760133079        0.0010031850893569        0.1055000000000000
O       -0.0154574516525873        0.1368143164696560       -0.2910474658685001       -0.3034110000000000
O       -0.0160968224664784        0.1365997670263802        0.2910474658685001       -0.3034110000000000
N       -1.0778481987474418       -0.4097785395533392       -0.0012169396301552        0.1979110000000000
N       -0.8308079100563979       -0.8970653808951180        0.0026879759460444        0.1055000000000000

        RMSE         7.254410804E-01 kcal/mol
         MAE         4.913964936E-01 kcal/mol
     max. AE         4.313489355E+00 kcal/mol

Coordinates in bohr
s                   x[bohr]                   y[bohr]                   z[bohr]                      q[e]
local coordinates in angstrom
s                      x[a]                      y[a]                       z[a                      q[e]
x        0.5500000000000000        0.0016585206671380        0.3315335018803517        0.1979110000000000
x       -0.5268659805417605       -0.0018957450720276        0.4457248145266424        0.1055000000000000
x        0.0239263953864491        0.5500000000000000       -0.0490494851659763       -0.3034110000000000
x        0.0229474536147534       -0.5500000000000000       -0.0498655047305117       -0.3034110000000000
x       -0.5500000000000000        0.0022996826122093        0.2887183453692007        0.1979110000000000
x        0.4558337195176238       -0.0050795383698423        0.5214855401053610        0.1055000000000000
