6
s                      x[A]                      y[A]                      z[A]                      q[e]
N       -0.0004835822963987        0.9745859038255296       -0.3374336542545971        0.1979110000000000
N        0.0009706716763855        0.7081705302110265       -0.8763381773851910        0.1055000000000000
O       -0.2910474658685001       -0.0000049494156726        0.1353871759195579       -0.3034110000000000
O        0.2910474658685001       -0.0000905682203230        0.1350585807477113       -0.3034110000000000
N       -0.0000542781878678       -0.9738660615906468       -0.3368128508798722        0.1979110000000000
N       -0.0007554935913316       -0.7091065465108437       -0.8771454127064400        0.1055000000000000

        RMSE         6.790721728E-01 kcal/mol
         MAE         4.624799789E-01 kcal/mol
     max. AE         4.011585377E+00 kcal/mol

Coordinates in bohr
s                   x[bohr]                   y[bohr]                   z[bohr]                      q[e]
local coordinates in angstrom
s                      x[a]                      y[a]                       z[a                      q[e]
x        0.5500000000000000        0.0009138380993135        0.2399043454287859        0.1979110000000000
x       -0.5500000000000000       -0.0018343036261075        0.5237455298597777        0.1055000000000000
x        0.0238282833430001        0.5500000000000000       -0.0205622407912955       -0.3034110000000000
x        0.0232523791543107       -0.5500000000000000       -0.0202792261185486       -0.3034110000000000
x       -0.5500000000000000        0.0001025709096562        0.2381080420355091        0.1979110000000000
x        0.5500000000000000        0.0014276759771553        0.5260812767415899        0.1055000000000000
