6
s                      x[A]                      y[A]                      z[A]                      q[e]
N        0.9463299179027878       -0.3417103854473855        0.0001555270921472        0.1979110000000000
N        0.6884398549544793       -0.8922512763931608       -0.0014766269157858        0.1055000000000000
O       -0.0049566895337836        0.1164195598697236       -0.2910964237704791       -0.3034110000000000
O       -0.0055740041911674        0.1162116866823454        0.2910964237704791       -0.3034110000000000
N       -0.9462571881560193       -0.4322517421411821        0.0000217218125817        0.1979110000000000
N       -0.6623181672962276       -0.9672356808413023        0.0001272223299663        0.1055000000000000

        RMSE         7.029785209E-01 kcal/mol
         MAE         4.812732690E-01 kcal/mol
     max. AE         4.111852372E+00 kcal/mol

Coordinates in bohr
s                   x[bohr]                   y[bohr]                   z[bohr]                      q[e]
local coordinates in angstrom
s                      x[a]                      y[a]                       z[a                      q[e]
x        0.5410412080150309       -0.0002939036092471        0.2051265527479700        0.1979110000000000
x       -0.5571767796427594        0.0027904204603146        0.5424571684561670        0.1055000000000000
x       -0.0243048922679918        0.5500925170264175        0.0093798140696890       -0.3034110000000000
x       -0.0253792326875555       -0.5500925170264175        0.0087790188199506       -0.3034110000000000
x       -0.5272630665367615       -0.0000410482767279        0.1991129037978681        0.1979110000000000
x        0.5647927358113520       -0.0002404153606790        0.5417277248016035        0.1055000000000000
