6
s                      x[A]                      y[A]                      z[A]                      q[e]
N        1.0901565470381429       -0.4127162266016611       -0.0009064296041708        0.1979110000000000
N        0.8025009220786652       -0.9029892415088873        0.0010180093389722        0.1055000000000000
O        0.0175538677846455        0.1361556994340631       -0.2911097034671184       -0.3034110000000000
O        0.0159633602252485        0.1350528793332355        0.2911097034671184       -0.3034110000000000
N       -1.0703737381279279       -0.2110241817729614       -0.0004321599734791        0.1979110000000000
N       -0.8427444429406032       -0.7161452865153807        0.0008271032399597        0.1055000000000000

        RMSE         7.267797299E-01 kcal/mol
         MAE         4.899347113E-01 kcal/mol
     max. AE         4.539917546E+00 kcal/mol

Coordinates in bohr
s                   x[bohr]                   y[bohr]                   z[bohr]                      q[e]
local coordinates in angstrom
s                      x[a]                      y[a]                       z[a                      q[e]
x        0.5606659390350615        0.0017129037038899        0.3101205901507456        0.1979110000000000
x       -0.4987424479115816       -0.0019237588438159        0.4876388269585732        0.1055000000000000
x        0.0556877938454363        0.5501176120160949       -0.0033363307495904       -0.3034110000000000
x        0.0521608150395423       -0.5501176120160949       -0.0043045077877935       -0.3034110000000000
x       -0.5405796618190379        0.0008166639922607        0.3249663641140614        0.1979110000000000
x        0.4977391205979984       -0.0015629986010026        0.4594164708205426        0.1055000000000000
