6
s                      x[A]                      y[A]                      z[A]                      q[e]
N        0.9758011681754384       -0.3148059171279969        0.0002166669425042        0.1979110000000000
N        0.7249356841263157       -0.8660758446604910       -0.0003334073419878        0.1055000000000000
O       -0.0042212765707852        0.1233409729313809       -0.2913365287118180       -0.3034110000000000
O       -0.0042065224732648        0.1234236345188125        0.2913365287118180       -0.3034110000000000
N       -0.9765979193849537       -0.4115161998969463        0.0003308918004046        0.1979110000000000
N       -0.6979459416399163       -0.9407788700106394       -0.0008648153002516        0.1055000000000000

        RMSE         6.971505512E-01 kcal/mol
         MAE         4.757601227E-01 kcal/mol
     max. AE         4.053299614E+00 kcal/mol

Coordinates in bohr
s                   x[bohr]                   y[bohr]                   z[bohr]                      q[e]
local coordinates in angstrom
s                      x[a]                      y[a]                       z[a                      q[e]
x        0.5513436899486805       -0.0004094411817732        0.2278842372998042        0.1979110000000000
x       -0.5510920701865416        0.0006300485645738        0.5354819197309553        0.1055000000000000
x       -0.0068148630525684        0.5505462496069171       -0.0046920132301693       -0.3034110000000000
x       -0.0066773604069112       -0.5505462496069171       -0.0047712044459161       -0.3034110000000000
x       -0.5352960583336426       -0.0006252948799244        0.2237697843302158        0.1979110000000000
x        0.5527131638928040        0.0016342640665812        0.5301048136961981        0.1055000000000000
