6
s                      x[A]                      y[A]                      z[A]                      q[e]
N        1.1117094551078146       -0.0968842229110361        0.0022844137773227        0.1979110000000000
N        1.0035516056361757       -0.5686394196320621       -0.0063041708054438        0.1055000000000000
O       -0.0170554720694745        0.1702368914228893       -0.2907423195280686       -0.3034110000000000
O       -0.0171259607849758        0.1703167252378260        0.2907423195280686       -0.3034110000000000
N       -1.1445000391262399       -0.3327637495504498       -0.0026931502247643        0.1979110000000000
N       -0.9687994217830802       -0.8149598065653018        0.0049279605930769        0.1055000000000000

        RMSE         7.497060187E-01 kcal/mol
         MAE         5.061846998E-01 kcal/mol
     max. AE         4.269813630E+00 kcal/mol

Coordinates in bohr
s                   x[bohr]                   y[bohr]                   z[bohr]                      q[e]
local coordinates in angstrom
s                      x[a]                      y[a]                       z[a                      q[e]
x        0.5425842691706748       -0.0043169163963626        0.3441408404933100        0.1979110000000000
x       -0.3531751842638187        0.0119131562703956        0.5289131764511694        0.1055000000000000
x        0.1148018925430279        0.5494233569883988       -0.0879214833758084       -0.3034110000000000
x        0.1148837157002163       -0.5494233569883988       -0.0881053538049343       -0.3034110000000000
x       -0.5766622226374238        0.0050893163395198        0.3294528556612022        0.1979110000000000
x        0.3602854209068482       -0.0093124958779640        0.5798316471873477        0.1055000000000000
