6
s                      x[A]                      y[A]                      z[A]                      q[e]
N        0.0001708016346474        0.8930818511767812       -0.4673693595861137        0.1979110000000000
N       -0.0012921485500986        0.6284993031921003       -0.9770551261097228        0.1055000000000000
O       -0.2910899422715546        0.0026550340263885        0.0857197402993854       -0.3034110000000000
O        0.2910899422715546        0.0013015787322014        0.0858537342026182       -0.3034110000000000
N        0.0002163318989043       -0.8911469513829692       -0.4736350676685037        0.1979110000000000
N        0.0006576978840103       -0.6225570796723067       -0.9708785099200237        0.1055000000000000

        RMSE         7.438644944E-01 kcal/mol
         MAE         5.107616787E-01 kcal/mol
     max. AE         5.048937116E+00 kcal/mol

Coordinates in bohr
s                   x[bohr]                   y[bohr]                   z[bohr]                      q[e]
local coordinates in angstrom
s                      x[a]                      y[a]                       z[a                      q[e]
x        0.4758218044648856       -0.0003227683112641        0.1747187538967410        0.1979110000000000
x       -0.5417155358099990        0.0024418068730938        0.5519402248755796        0.1055000000000000
x       -0.0677976149577262        0.5500802687685677        0.0821705123526044       -0.3034110000000000
x       -0.0695214216202658       -0.5500802687685677        0.0802641465438683       -0.3034110000000000
x       -0.4651568592726107       -0.0004088080411293        0.1810294759416138        0.1979110000000000
x        0.5421866951610355       -0.0012428688740727        0.5357503946688666        0.1055000000000000
