6
s                      x[A]                      y[A]                      z[A]                      q[e]
N        1.0679815673334798       -0.3533388826395762       -0.0005425771797981        0.1979110000000000
N        0.7940324550167356       -0.8419376096914112       -0.0000539520677618        0.1055000000000000
O        0.0068884419006244        0.1430799871093605       -0.2910474658685001       -0.3034110000000000
O        0.0061182311055598        0.1430887987785367        0.2910474658685001       -0.3034110000000000
N       -1.0585323719924513       -0.2456536705854156       -0.0003560637308522        0.1979110000000000
N       -0.8181360034070027       -0.7512365734765881        0.0007825577640558        0.1055000000000000

        RMSE         7.074439554E-01 kcal/mol
         MAE         4.775133647E-01 kcal/mol
     max. AE         4.404342021E+00 kcal/mol

Coordinates in bohr
s                   x[bohr]                   y[bohr]                   z[bohr]                      q[e]
local coordinates in angstrom
s                      x[a]                      y[a]                       z[a                      q[e]
x        0.5500000000000000        0.0010253222717416        0.3172752710127582        0.1979110000000000
x       -0.4965773301172400        0.0001019546319720        0.4759992510542169        0.1055000000000000
x        0.0583970595843025        0.5500000000000000       -0.0289675554849737       -0.3034110000000000
x        0.0575160665381229       -0.5500000000000000       -0.0301262496984984       -0.3034110000000000
x       -0.5500000000000000        0.0006728629345194        0.3190795819465760        0.1979110000000000
x        0.4970552075526873       -0.0014788198514162        0.4702851659522401        0.1055000000000000
