6
s                      x[A]                      y[A]                      z[A]                      q[e]
N        0.0003418461686951        0.9926313108406971       -0.4185501854229793        0.1979110000000000
N       -0.0015282331374367        0.7373601019044881       -0.9699530877437920        0.1055000000000000
O       -0.2910474658685001        0.0003291160469374        0.0959977671995210       -0.3034110000000000
O        0.2910474658685001       -0.0005964389241866        0.0969207328139807       -0.3034110000000000
N        0.0006676064071443       -0.9928037607938831       -0.4183238954032674        0.1979110000000000
N       -0.0012846381857979       -0.7373597198056662       -0.9699527216440642        0.1055000000000000

        RMSE         7.509543787E-01 kcal/mol
         MAE         5.198868591E-01 kcal/mol
     max. AE         4.535288372E+00 kcal/mol

Coordinates in bohr
s                   x[bohr]                   y[bohr]                   z[bohr]                      q[e]
local coordinates in angstrom
s                      x[a]                      y[a]                       z[a                      q[e]
x        0.5361219389905965       -0.0006459956358707        0.1774321483843150        0.1979110000000000
x       -0.5500000000000000        0.0028879420856046        0.5500000000000000        0.1055000000000000
x       -0.0590795663258283        0.5500000000000000        0.0574671470680973       -0.3034110000000000
x       -0.0590302190271843       -0.5500000000000000        0.0549975738851757       -0.3034110000000000
x       -0.5366561668281002       -0.0012615932691037        0.1773716124409251        0.1979110000000000
x        0.5500000000000000        0.0024276143414631        0.5499990000000000        0.1055000000000000
