6
s                      x[A]                      y[A]                      z[A]                      q[e]
N       -0.0012997820079709        1.1281352708800032       -0.2349493818096998        0.1979110000000000
N        0.0013468077391461        0.9632602598150399       -0.7041716149060393        0.1055000000000000
O       -0.2910474658685001        0.0012692724680272        0.1630410879140678       -0.3034110000000000
O        0.2910474658685001       -0.0002556022218092        0.1637229566461121       -0.3034110000000000
N        0.0015278450235652       -1.1276695261630487       -0.2346720176878968        0.1979110000000000
N       -0.0025018433527606       -0.9598440484874560       -0.7089623385683596        0.1055000000000000

        RMSE         7.455988854E-01 kcal/mol
         MAE         5.031503099E-01 kcal/mol
     max. AE         4.472924295E+00 kcal/mol

Coordinates in bohr
s                   x[bohr]                   y[bohr]                   z[bohr]                      q[e]
local coordinates in angstrom
s                      x[a]                      y[a]                       z[a                      q[e]
x        0.5500000000000000        0.0024562320178626        0.3414828295640014        0.1979110000000000
x       -0.3712587988326805       -0.0025450977706332        0.5274849808198633        0.1055000000000000
x        0.1066052513641014        0.5500000000000000       -0.0606947409473519       -0.3034110000000000
x        0.1062379279016776       -0.5500000000000000       -0.0638298669334425       -0.3034110000000000
x       -0.5500000000000000       -0.0028872086566819        0.3404584498395608        0.1979110000000000
x        0.3823402954913433        0.0047277987455147        0.5265705570725061        0.1055000000000000
