6
s                      x[A]                      y[A]                      z[A]                      q[e]
N        1.0884682733405764       -0.1998255774888321       -0.0026498760750834        0.1979110000000000
N        0.8862869072719213       -0.6868840279593441        0.0038716284116823        0.1055000000000000
O       -0.0055586877682483        0.1584392785418141       -0.2910474658685001       -0.3034110000000000
O       -0.0077178467859324        0.1580969126930621        0.2910474658685001       -0.3034110000000000
N       -1.0954175657906404       -0.3142698609286450        0.0017095604113390        0.1979110000000000
N       -0.8742207772674497       -0.7893564259431317       -0.0030931638991298        0.1055000000000000

        RMSE         7.192077673E-01 kcal/mol
         MAE         4.835737178E-01 kcal/mol
     max. AE         4.297489017E+00 kcal/mol

Coordinates in bohr
s                   x[bohr]                   y[bohr]                   z[bohr]                      q[e]
local coordinates in angstrom
s                      x[a]                      y[a]                       z[a                      q[e]
x        0.5500000000000000        0.0050075400483107        0.3442725772015039        0.1979110000000000
x       -0.4372160504200899       -0.0073163173576208        0.4803944539906048        0.1055000000000000
x        0.0879696692147668        0.5500000000000000       -0.0637780198663601       -0.3034110000000000
x        0.0853472264782953       -0.5500000000000000       -0.0669701293542211       -0.3034110000000000
x       -0.5500000000000000       -0.0032306009723557        0.3322831357754125        0.1979110000000000
x        0.4247047576477476        0.0058452326305087        0.5074715081313553        0.1055000000000000
