6
s                      x[A]                      y[A]                      z[A]                      q[e]
N       -0.0006951185181059        1.1045583070265510       -0.3411430878659377        0.1979110000000000
N        0.0005149539735721        0.8578400059689677       -0.8558215341548991        0.1055000000000000
O       -0.2911028697085717        0.0010488498916490        0.1177588815147483       -0.3034110000000000
O        0.2911028697085717       -0.0000177299570595        0.1177658738230784       -0.3034110000000000
N       -0.0002823198545422       -1.1056041075304983       -0.3423270254194334        0.1979110000000000
N        0.0008334786123073       -0.8530897444663069       -0.8557883536023754        0.1055000000000000

        RMSE         7.529381003E-01 kcal/mol
         MAE         5.118506666E-01 kcal/mol
     max. AE         4.595262832E+00 kcal/mol

Coordinates in bohr
s                   x[bohr]                   y[bohr]                   z[bohr]                      q[e]
local coordinates in angstrom
s                      x[a]                      y[a]                       z[a                      q[e]
x        0.5503780189751524        0.0013135836239542        0.2878124211565591        0.1979110000000000
x       -0.5077883950771138       -0.0009731219772675        0.4966366813969216        0.1055000000000000
x       -0.0034351050408077        0.5501046980840343        0.0050419271456121       -0.3034110000000000
x       -0.0046311747983054       -0.5501046980840343        0.0034195805233139       -0.3034110000000000
x       -0.5497690890724698        0.0005335072048638        0.2907348283697502        0.1979110000000000
x        0.5131122841521574       -0.0015750463086874        0.4894088768451184        0.1055000000000000
