6
s                      x[A]                      y[A]                      z[A]                      q[e]
N        1.1348559604028792       -0.2699786812998825        0.0005875077765373        0.1979110000000000
N        0.9580037714126635       -0.7111504846773639       -0.0001163381139998        0.1055000000000000
O        0.0075435532900669        0.1756304293113191       -0.2910378779646063       -0.3034110000000000
O        0.0061795829955069        0.1747916343088431        0.2910378779646063       -0.3034110000000000
N       -1.1244185451735420       -0.1399275852753404       -0.0005083459915265        0.1979110000000000
N       -0.9685893160363862       -0.5870685616705649        0.0016071880783581        0.1055000000000000

        RMSE         7.394553208E-01 kcal/mol
         MAE         4.978444563E-01 kcal/mol
     max. AE         4.513428757E+00 kcal/mol

Coordinates in bohr
s                   x[bohr]                   y[bohr]                   z[bohr]                      q[e]
local coordinates in angstrom
s                      x[a]                      y[a]                       z[a                      q[e]
x        0.5429605038848422       -0.0011102287942322        0.3711409540428576        0.1979110000000000
x       -0.3423283047895893        0.0002198471734118        0.5227995408677089        0.1055000000000000
x        0.1452951753908565        0.5499818814875237       -0.0725342630485102       -0.3034110000000000
x        0.1425953468069565       -0.5499818814875237       -0.0739006844128198       -0.3034110000000000
x       -0.5403364150515699        0.0009606347009594        0.3826741629454773        0.1979110000000000
x        0.3482385764946230       -0.0030371453001976        0.4881767181614123        0.1055000000000000
