6
s                      x[A]                      y[A]                      z[A]                      q[e]
N        0.0004273300441523        1.1138507309188328       -0.3258893466655792        0.1979110000000000
N       -0.0016555422135036        0.8871830551668793       -0.8322613115000581        0.1055000000000000
O       -0.2910474658685001        0.0007675294232896        0.1243722772828577       -0.3034110000000000
O        0.2910474658685001       -0.0002473451291193        0.1250800535921424       -0.3034110000000000
N        0.0003025069404433       -1.1130378298524994       -0.3253036026640998        0.1979110000000000
N        0.0000738434359070       -0.8867894214855265       -0.8329008635166978        0.1055000000000000

        RMSE         7.571817021E-01 kcal/mol
         MAE         5.181732702E-01 kcal/mol
     max. AE         4.601506887E+00 kcal/mol

Coordinates in bohr
s                   x[bohr]                   y[bohr]                   z[bohr]                      q[e]
local coordinates in angstrom
s                      x[a]                      y[a]                       z[a                      q[e]
x        0.5500000000000000       -0.0008075367486276        0.2913425167349664        0.1979110000000000
x       -0.4767636544092766        0.0031285213726561        0.5032323602226438        0.1055000000000000
x        0.0106588283468106        0.5500000000000000       -0.0058925937852029       -0.3034110000000000
x        0.0106227962210351       -0.5500000000000000       -0.0082304791335397       -0.3034110000000000
x       -0.5500000000000000       -0.0005716552684881        0.2894491052885956        0.1979110000000000
x        0.4781790600189170       -0.0001395438700270        0.5033353922286596        0.1055000000000000
