6
s                      x[A]                      y[A]                      z[A]                      q[e]
N        1.1198635780999053       -0.0972851376324297        0.0003618004307380        0.1979110000000000
N        0.9914407587863462       -0.5690514795020361       -0.0002751728933998        0.1055000000000000
O       -0.0135385394650426        0.1682446121011695       -0.2910173110592378       -0.3034110000000000
O       -0.0135082153513212        0.1685227219715859        0.2910173110592378       -0.3034110000000000
N       -1.1404673705598460       -0.3466381624117252       -0.0022363666755281        0.1979110000000000
N       -0.9704854566335216       -0.7990420612579988        0.0029181746302203        0.1055000000000000

        RMSE         7.536621071E-01 kcal/mol
         MAE         5.089903091E-01 kcal/mol
     max. AE         4.348472753E+00 kcal/mol

Coordinates in bohr
s                   x[bohr]                   y[bohr]                   z[bohr]                      q[e]
local coordinates in angstrom
s                      x[a]                      y[a]                       z[a                      q[e]
x        0.5483019210137172       -0.0006837037261676        0.3584698862014193        0.1979110000000000
x       -0.3633988432939077        0.0005200014056754        0.5084226776016294        0.1055000000000000
x        0.1141411191051702        0.5499430156691290       -0.0803117917589589       -0.3034110000000000
x        0.1146429170212286       -0.5499430156691290       -0.0804781858610113       -0.3034110000000000
x       -0.5508112199904645        0.0042261205328487        0.3382407677090669        0.1979110000000000
x        0.3338130765087044       -0.0055145508373755        0.5651966318146151        0.1055000000000000
