6
s                      x[A]                      y[A]                      z[A]                      q[e]
N       -0.0007581497297499        1.0915290122409813       -0.3540811635763187        0.1979110000000000
N       -0.0002448578643899        0.8336363639315931       -0.8721773231983335        0.1055000000000000
O       -0.2910474658685001        0.0011590713811421        0.1140344301747570       -0.3034110000000000
O        0.2910474658685001       -0.0008255126969947        0.1138140474131076       -0.3034110000000000
N        0.0000592806383792       -1.0913861138615462       -0.3539704200700459        0.1979110000000000
N        0.0007574620067466       -0.8325030318044422       -0.8726136041498664        0.1055000000000000

        RMSE         7.489467280E-01 kcal/mol
         MAE         5.130698319E-01 kcal/mol
     max. AE         4.513942660E+00 kcal/mol

Coordinates in bohr
s                   x[bohr]                   y[bohr]                   z[bohr]                      q[e]
local coordinates in angstrom
s                      x[a]                      y[a]                       z[a                      q[e]
x        0.5500000000000000        0.0014326953513172        0.2766327005250187        0.1979110000000000
x       -0.5224008508918837        0.0004627143033615        0.4911581964433996        0.1055000000000000
x       -0.0129690104112878        0.5500000000000000        0.0128218194145141       -0.3034110000000000
x       -0.0155954966571282       -0.5500000000000000        0.0101125917681216       -0.3034110000000000
x       -0.5500000000000000       -0.0001120241710790        0.2762910619198818        0.1979110000000000
x        0.5243644325334371       -0.0014313957431907        0.4899703866732023        0.1055000000000000
