6
s                      x[A]                      y[A]                      z[A]                      q[e]
N        1.0104033500962888       -0.4238628698963390        0.0000666053742470        0.1979110000000000
N        0.7445278372981508       -0.9736044371825116       -0.0006166603341709        0.1055000000000000
O        0.0076247814763962        0.1114728928993688       -0.2910474658685001       -0.3034110000000000
O        0.0072728356771496        0.1109618286374981        0.2910474658685001       -0.3034110000000000
N       -1.0040239869083449       -0.3349294582225155       -0.0005141948890682        0.1979110000000000
N       -0.7678934184896561       -0.8972660463173951        0.0002196087978742        0.1055000000000000

        RMSE         7.261978607E-01 kcal/mol
         MAE         4.999444317E-01 kcal/mol
     max. AE         4.146973331E+00 kcal/mol

Coordinates in bohr
s                   x[bohr]                   y[bohr]                   z[bohr]                      q[e]
local coordinates in angstrom
s                      x[a]                      y[a]                       z[a                      q[e]
x        0.5500000000000000       -0.0001258659158105        0.2011877321840536        0.1979110000000000
x       -0.5500000000000000        0.0011653191440163        0.5500000000000000        0.1055000000000000
x       -0.0171315863066143        0.5500000000000000        0.0360352375457524       -0.3034110000000000
x       -0.0182902475602675       -0.5500000000000000        0.0362156582486574       -0.3034110000000000
x       -0.5500000000000000        0.0009716875154491        0.2059568602753162        0.1979110000000000
x        0.5500000000000000       -0.0004150004827233        0.5499990000000000        0.1055000000000000
