6
s                      x[A]                      y[A]                      z[A]                      q[e]
N       -0.0005365064721429        0.9463688312011711       -0.3623824292777223        0.1979110000000000
N        0.0007089677786892        0.6725094328841137       -0.9017147229817745        0.1055000000000000
O       -0.2910767394115034       -0.0001570073878747        0.1283492522845536       -0.3034110000000000
O        0.2910767394115034       -0.0007581738453438        0.1280763193280774       -0.3034110000000000
N        0.0000824532871383       -0.9457130790558277       -0.3605984128511036        0.1979110000000000
N       -0.0012004151506241       -0.6742791584120473       -0.9042981789226403        0.1055000000000000

        RMSE         6.835691126E-01 kcal/mol
         MAE         4.663293736E-01 kcal/mol
     max. AE         3.937069093E+00 kcal/mol

Coordinates in bohr
s                   x[bohr]                   y[bohr]                   z[bohr]                      q[e]
local coordinates in angstrom
s                      x[a]                      y[a]                       z[a                      q[e]
x        0.5406027497710966        0.0010138502968857        0.2184679048095859        0.1979110000000000
x       -0.5589679563036043       -0.0013397549334968        0.5307488144680974        0.1055000000000000
x        0.0065742530068746        0.5500553189789983       -0.0064867090263760       -0.3034110000000000
x        0.0054241566658675       -0.5500553189789983       -0.0069703229046354       -0.3034110000000000
x       -0.5422358129226268       -0.0001558141308351        0.2152687827947375        0.1979110000000000
x        0.5602803079664227        0.0022684558715298        0.5365191015298478        0.1055000000000000
