6
s                      x[A]                      y[A]                      z[A]                      q[e]
N        1.1434206271042258       -0.2728583145468796        0.0001245912288398        0.1979110000000000
N        0.9436020105874383       -0.7075792336199106        0.0002748072670977        0.1055000000000000
O        0.0152994716325882        0.1714594583952397       -0.2913254509714834       -0.3034110000000000
O        0.0142486512923214        0.1699149279742769        0.2913254509714834       -0.3034110000000000
N       -1.1276055801821241       -0.1570998904504681       -0.0023297344597281        0.1979110000000000
N       -0.9563035093031789       -0.5832195940769010        0.0044826582646445        0.1055000000000000

        RMSE         7.603106338E-01 kcal/mol
         MAE         5.058231730E-01 kcal/mol
     max. AE         4.846061850E+00 kcal/mol

Coordinates in bohr
s                   x[bohr]                   y[bohr]                   z[bohr]                      q[e]
local coordinates in angstrom
s                      x[a]                      y[a]                       z[a                      q[e]
x        0.5467962136867754       -0.0002354433001415        0.3877797576983539        0.1979110000000000
x       -0.3508245591642662       -0.0005193104721002        0.4960780974352019        0.1055000000000000
x        0.1462516377102929        0.5505253157115959       -0.0559202393202156       -0.3034110000000000
x        0.1427252557818974       -0.5505253157115959       -0.0560843246547904       -0.3034110000000000
x       -0.5138045833148226        0.0044025600739275        0.4023057266608703        0.1979110000000000
x        0.3518723478844095       -0.0084709964341982        0.4641201245958655        0.1055000000000000
