6
s                      x[A]                      y[A]                      z[A]                      q[e]
N        0.0000519445224160        1.0951960254350961       -0.2211345768749749        0.1979110000000000
N       -0.0004102625581120        0.8947421611780003       -0.6865833344252293        0.1055000000000000
O       -0.2909589091235398        0.0017128084129767        0.1717673850176259       -0.3034110000000000
O        0.2909589091235398        0.0007450439310039        0.1703706041361582       -0.3034110000000000
N       -0.0023413408133849       -1.0941207434962068       -0.2244257523305293        0.1979110000000000
N        0.0041995514383923       -0.8937951618957374       -0.6862908664033126        0.1055000000000000

        RMSE         7.077877444E-01 kcal/mol
         MAE         4.732040107E-01 kcal/mol
     max. AE         4.293654820E+00 kcal/mol

Coordinates in bohr
s                   x[bohr]                   y[bohr]                   z[bohr]                      q[e]
local coordinates in angstrom
s                      x[a]                      y[a]                       z[a                      q[e]
x        0.5488886944226579       -0.0000981609210839        0.3641827404348987        0.1979110000000000
x       -0.4006450012848290        0.0007752838743613        0.4887699675955446        0.1055000000000000
x        0.1295097344020633        0.5498326520054633       -0.0733595241071754       -0.3034110000000000
x        0.1263061480772194       -0.5498326520054633       -0.0735802415722162       -0.3034110000000000
x       -0.5425053695520319        0.0044244929036541        0.3656191695090456        0.1979110000000000
x        0.4010858097119581       -0.0079360020683339        0.4869496087658263        0.1055000000000000
