6
s                      x[A]                      y[A]                      z[A]                      q[e]
N       -0.0000961909356231        1.0588183408646481       -0.3348565719651271        0.1979110000000000
N       -0.0003451183860225        0.7860964187700431       -0.8468557979938249        0.1055000000000000
O       -0.2910474658685001        0.0004359190216738        0.1277440802452008       -0.3034110000000000
O        0.2910474658685001       -0.0001031035113361        0.1271566242009607       -0.3034110000000000
N       -0.0006629033919059       -1.0583620582089863       -0.3345029617543002        0.1979110000000000
N        0.0002567053694216       -0.7860420245648926       -0.8467510608998956        0.1055000000000000

        RMSE         7.162363459E-01 kcal/mol
         MAE         4.870593675E-01 kcal/mol
     max. AE         4.393320769E+00 kcal/mol

Coordinates in bohr
s                   x[bohr]                   y[bohr]                   z[bohr]                      q[e]
local coordinates in angstrom
s                      x[a]                      y[a]                       z[a                      q[e]
x        0.5500000000000000        0.0001817745240792        0.2929149147116105        0.1979110000000000
x       -0.5304599923568116        0.0006521792304426        0.4782323812107154        0.1055000000000000
x        0.0158216729893530        0.5500000000000000       -0.0112193033692295       -0.3034110000000000
x        0.0143202416868168       -0.5500000000000000       -0.0113444074360345       -0.3034110000000000
x       -0.5500000000000000        0.0012527058583392        0.2918240433300666        0.1979110000000000
x        0.5303665137946467       -0.0004851028431413        0.4780298925676582        0.1055000000000000
