6
s                      x[A]                      y[A]                      z[A]                      q[e]
N        1.0416010830803859       -0.3187213727283698       -0.0001631701456921        0.1979110000000000
N        0.7925015275024612       -0.8553802718418636       -0.0019230900757039        0.1055000000000000
O       -0.0065549081371700        0.1162511615492220       -0.2914452069253972       -0.3034110000000000
O       -0.0081332752809458        0.1165063587812445        0.2914452069253972       -0.3034110000000000
N       -1.0485804662892264       -0.4044708594368340       -0.0001918235763109        0.1979110000000000
N       -0.7768241462358377       -0.9422881434270921        0.0004566367427749        0.1055000000000000

        RMSE         7.234425695E-01 kcal/mol
         MAE         4.922641078E-01 kcal/mol
     max. AE         4.294846028E+00 kcal/mol

Coordinates in bohr
s                   x[bohr]                   y[bohr]                   z[bohr]                      q[e]
local coordinates in angstrom
s                      x[a]                      y[a]                       z[a                      q[e]
x        0.5506049669356798        0.0003083468872092        0.2559319639972273        0.1979110000000000
x       -0.5382384106817426        0.0036341135576663        0.5098676852121571        0.1055000000000000
x       -0.0220926644260544        0.5507516216663859        0.0015522915206816       -0.3034110000000000
x       -0.0235502060345425       -0.5507516216663859       -0.0010943157386976       -0.3034110000000000
x       -0.5631316274281062        0.0003624940236335        0.2413142327900459        0.1979110000000000
x        0.5382208327162061       -0.0008629183826656        0.5305763482620023        0.1055000000000000
