6
s                      x[A]                      y[A]                      z[A]                      q[e]
N        0.8898966559435003       -0.4794167696955386        0.0002901125007825        0.1979110000000000
N        0.6150959898803465       -0.9889744661585967       -0.0009210928786797        0.1055000000000000
O        0.0053633240839245        0.1012645742344111       -0.2910474658685001       -0.3034110000000000
O        0.0044959581328575        0.1019116101500136        0.2910474658685001       -0.3034110000000000
N       -0.8973988565326113       -0.3911442956192188       -0.0003109079571095        0.1979110000000000
N       -0.6366048250902303       -0.9219322940236176        0.0008162821952885        0.1055000000000000

        RMSE         7.202928533E-01 kcal/mol
         MAE         4.948716155E-01 kcal/mol
     max. AE         4.700731431E+00 kcal/mol

Coordinates in bohr
s                   x[bohr]                   y[bohr]                   z[bohr]                      q[e]
local coordinates in angstrom
s                      x[a]                      y[a]                       z[a                      q[e]
x        0.4788401771880701       -0.0005482331720505        0.1756887462870299        0.1979110000000000
x       -0.5500000000000000        0.0017406132768141        0.5476858923586935        0.1055000000000000
x       -0.0363796773167838        0.5500000000000000        0.0559221257775726       -0.3034110000000000
x       -0.0367871550719041       -0.5500000000000000        0.0539182284733666       -0.3034110000000000
x       -0.5056218254934300        0.0005875308891626        0.1830651693381511        0.1979110000000000
x        0.5500000000000000       -0.0015425497901827        0.5499990000000000        0.1055000000000000
