6
s                      x[A]                      y[A]                      z[A]                      q[e]
N        0.0008807359103571        1.1446129358651456       -0.2042290724363665        0.1979110000000000
N       -0.0017666395573359        1.0062752237948236       -0.6631994746008060        0.1055000000000000
O       -0.2910474658685001        0.0001319328126566        0.1727136969344753       -0.3034110000000000
O        0.2910474658685001       -0.0000234323444965        0.1737479612096901       -0.3034110000000000
N       -0.0005581859990534       -1.1440303652489670       -0.2039091323476570        0.1979110000000000
N       -0.0009626566035473       -1.0061681648702703       -0.6649848823634004        0.1055000000000000

        RMSE         7.541898925E-01 kcal/mol
         MAE         5.122108725E-01 kcal/mol
     max. AE         4.423563240E+00 kcal/mol

Coordinates in bohr
s                   x[bohr]                   y[bohr]                   z[bohr]                      q[e]
local coordinates in angstrom
s                      x[a]                      y[a]                       z[a                      q[e]
x        0.5500000000000000       -0.0016643496594307        0.3534281608290115        0.1979110000000000
x       -0.3360681129659656        0.0033384649257650        0.5417958928357755        0.1055000000000000
x        0.1332704295069487        0.5500000000000000       -0.0729059193228916       -0.3034110000000000
x        0.1348422311122529       -0.5500000000000000       -0.0741040914985918       -0.3034110000000000
x       -0.5500000000000000        0.0010548186652759        0.3521721677786613        0.1979110000000000
x        0.3391228077545078        0.0018191573335678        0.5432426771963370        0.1055000000000000
