6
s                      x[A]                      y[A]                      z[A]                      q[e]
N       -0.0009562272454320        1.0806191059107007       -0.3639121622288831        0.1979110000000000
N       -0.0008114638040324        0.8206204211661957       -0.8913336076733068        0.1055000000000000
O       -0.2912102845303624       -0.0020800841582745        0.1132767569525826       -0.3034110000000000
O        0.2912102845303624       -0.0041664913076242        0.1136078646684784       -0.3034110000000000
N       -0.0002250171779512       -1.0798022599811050       -0.3523494010184446        0.1979110000000000
N       -0.0000978584213239       -0.8298637527544878       -0.8979025434092660        0.1055000000000000

        RMSE         7.407138007E-01 kcal/mol
         MAE         5.031865609E-01 kcal/mol
     max. AE         4.435804768E+00 kcal/mol

Coordinates in bohr
s                   x[bohr]                   y[bohr]                   z[bohr]                      q[e]
local coordinates in angstrom
s                      x[a]                      y[a]                       z[a                      q[e]
x        0.5565527726134860        0.0018070076075674        0.2655353465693224        0.1979110000000000
x       -0.5281716725660317        0.0015334443503434        0.5066776196217688        0.1055000000000000
x       -0.0217664089927894        0.5503076826790334        0.0124430245538463       -0.3034110000000000
x       -0.0237477977027538       -0.5503076826790334        0.0089773663748645       -0.3034110000000000
x       -0.5726209216916232        0.0004252208398512        0.2506477818651547        0.1979110000000000
x        0.5269101924000097        0.0001849256153719        0.5280694927378136        0.1055000000000000
