6
s                      x[A]                      y[A]                      z[A]                      q[e]
N       -0.0004532280713227        1.0467050488934428       -0.2891990861603682        0.1979110000000000
N       -0.0003505581106105        0.7814629581787466       -0.7864159379496655        0.1055000000000000
O       -0.2910474658685001        0.0005943787712215        0.1494184647169690       -0.3034110000000000
O        0.2910474658685001       -0.0006823688037035        0.1480778009883637       -0.3034110000000000
N       -0.0008292233758548       -1.0468576990277196       -0.2893090797537057        0.1979110000000000
N        0.0016758676935142       -0.7810715126353068       -0.7851283983561084        0.1055000000000000

        RMSE         6.873389007E-01 kcal/mol
         MAE         4.624189652E-01 kcal/mol
     max. AE         4.273781414E+00 kcal/mol

Coordinates in bohr
s                   x[bohr]                   y[bohr]                   z[bohr]                      q[e]
local coordinates in angstrom
s                      x[a]                      y[a]                       z[a                      q[e]
x        0.5500000000000000        0.0008564769271694        0.3239191525170538        0.1979110000000000
x       -0.5053420482063528        0.0006624588201118        0.4665538623936132        0.1055000000000000
x        0.0667937028109395        0.5500000000000000       -0.0467444472535831       -0.3034110000000000
x        0.0633277610650925       -0.5500000000000000       -0.0472208321206205       -0.3034110000000000
x       -0.5500000000000000        0.0015670050771931        0.3242747056504690        0.1979110000000000
x        0.5038004767462080       -0.0031669309632446        0.4645313114454453        0.1055000000000000
