6
s                      x[A]                      y[A]                      z[A]                      q[e]
N        0.8989335681650129       -0.3901552317503551        0.0004304154058543        0.1979110000000000
N        0.6420112916879734       -0.9265234888672014        0.0007940532950533        0.1055000000000000
O       -0.0010257546657132        0.0988723734415145       -0.2913335513664879       -0.3034110000000000
O       -0.0004817380258388        0.0994118699918507        0.2913335513664879       -0.3034110000000000
N       -0.8892248714831980       -0.4878722834077318        0.0006588024271611        0.1979110000000000
N       -0.6098226793712610       -0.9837220895170927       -0.0015008665692317        0.1055000000000000

        RMSE         7.220314435E-01 kcal/mol
         MAE         4.939825468E-01 kcal/mol
     max. AE         4.756409795E+00 kcal/mol

Coordinates in bohr
s                   x[bohr]                   y[bohr]                   z[bohr]                      q[e]
local coordinates in angstrom
s                      x[a]                      y[a]                       z[a                      q[e]
x        0.5089983820912494       -0.0008133672372423        0.1837746207470445        0.1979110000000000
x       -0.5488327737009513       -0.0015005432566682        0.5633516817106283        0.1055000000000000
x       -0.0509103911188049        0.5505406232396624        0.0487497929976826       -0.3034110000000000
x       -0.0494625488354359       -0.5505406232396624        0.0487473959515228       -0.3034110000000000
x       -0.4672466535624835       -0.0012449561581214        0.1867575147107345        0.1979110000000000
x        0.5508169930155873        0.0028362267667035        0.5336447883501023        0.1055000000000000
