6
s                      x[A]                      y[A]                      z[A]                      q[e]
N        1.0032373465764848       -0.2875340705377804        0.0002199465556567        0.1979110000000000
N        0.7615525641145393       -0.8336985908913995       -0.0008437283016953        0.1055000000000000
O       -0.0048308364952817        0.1322380149372306       -0.2913239403866407       -0.3034110000000000
O       -0.0050577011431585        0.1321168626046015        0.2913239403866407       -0.3034110000000000
N       -1.0070058323473423       -0.3854530617891865       -0.0000334518985159        0.1979110000000000
N       -0.7366411587392536       -0.9154850219999843       -0.0001957028824076        0.1055000000000000

        RMSE         6.922410683E-01 kcal/mol
         MAE         4.712749927E-01 kcal/mol
     max. AE         4.092232856E+00 kcal/mol

Coordinates in bohr
s                   x[bohr]                   y[bohr]                   z[bohr]                      q[e]
local coordinates in angstrom
s                      x[a]                      y[a]                       z[a                      q[e]
x        0.5586761944182399       -0.0004156387524290        0.2504758902646245        0.1979110000000000
x       -0.5361344281748188        0.0015944154145018        0.5247281444599139        0.1055000000000000
x        0.0132667026343825        0.5505224611199537       -0.0219145370589899       -0.3034110000000000
x        0.0128225796779589       -0.5505224611199537       -0.0221119313640656       -0.3034110000000000
x       -0.5503610181884824        0.0000632149265716        0.2442495784976018        0.1979110000000000
x        0.5377723198121203        0.0003698248497130        0.5275043423480383        0.1055000000000000
