6
s                      x[A]                      y[A]                      z[A]                      q[e]
N        1.0571795608914825       -0.4322900580627396       -0.0006356141025678        0.1979110000000000
N        0.7742963003898995       -0.9299634151661085        0.0010270529733641        0.1055000000000000
O        0.0152460152888064        0.1276618855453240       -0.2910474658685001       -0.3034110000000000
O        0.0147213271838775        0.1268958806335536        0.2910474658685001       -0.3034110000000000
N       -1.0516531020207474       -0.2388617985322657       -0.0006653808327322        0.1979110000000000
N       -0.7921554814761569       -0.7658387413157615        0.0007346777161995        0.1055000000000000

        RMSE         7.167550706E-01 kcal/mol
         MAE         4.871015173E-01 kcal/mol
     max. AE         4.369846742E+00 kcal/mol

Coordinates in bohr
s                   x[bohr]                   y[bohr]                   z[bohr]                      q[e]
local coordinates in angstrom
s                      x[a]                      y[a]                       z[a                      q[e]
x        0.5500000000000000        0.0012011365753318        0.2770812804405024        0.1979110000000000
x       -0.5081016334029833       -0.0019408488359954        0.5021701128185869        0.1055000000000000
x        0.0331315602497187        0.5500000000000000        0.0091015045743560       -0.3034110000000000
x        0.0313908905257171       -0.5500000000000000        0.0093218341052637       -0.3034110000000000
x       -0.5500000000000000        0.0012573875429928        0.3073705989715789        0.1979110000000000
x        0.5500000000000000       -0.0013883396740938        0.4562781847183087        0.1055000000000000
