6
s                      x[A]                      y[A]                      z[A]                      q[e]
N        1.0558103649019794       -0.4283181311153610       -0.0008422781861775        0.1979110000000000
N        0.7765453526338058       -0.9342731710653865        0.0011688269717795        0.1055000000000000
O        0.0143765507555798        0.1306924588291698       -0.2910344288211838       -0.3034110000000000
O        0.0136991777092261        0.1303868872164330        0.2910344288211838       -0.3034110000000000
N       -1.0455828003377359       -0.2325695473597666       -0.0000143684022269        0.1979110000000000
N       -0.8066177067836658       -0.7633676999749031        0.0000209677413617        0.1055000000000000

        RMSE         7.146569220E-01 kcal/mol
         MAE         4.874179148E-01 kcal/mol
     max. AE         4.327272617E+00 kcal/mol

Coordinates in bohr
s                   x[bohr]                   y[bohr]                   z[bohr]                      q[e]
local coordinates in angstrom
s                      x[a]                      y[a]                       z[a                      q[e]
x        0.5538921373399717        0.0015916750933229        0.2701614697580226        0.1979110000000000
x       -0.5113665726139516       -0.0022087628647114        0.5107568703060679        0.1055000000000000
x        0.0363212070883492        0.5499753635510878        0.0040692324896554       -0.3034110000000000
x        0.0350392964091952       -0.5499753635510878        0.0034959293529937       -0.3034110000000000
x       -0.5534639812622117        0.0000271523450692        0.2912158301642194        0.1979110000000000
x        0.5308720359071231       -0.0000396232886430        0.4763489487522747        0.1055000000000000
