6
s                      x[A]                      y[A]                      z[A]                      q[e]
N       -0.0002035226714208        1.1799647709899632       -0.2379039395895030        0.1979110000000000
N       -0.0002862686491183        1.0335515118870258       -0.7008403552741619        0.1055000000000000
O       -0.2911006711943435        0.0006558770674306        0.1570651582762003       -0.3034110000000000
O        0.2911006711943435       -0.0006383643056870        0.1572419488437263       -0.3034110000000000
N       -0.0011337316840403       -1.1788887804983526       -0.2353228354920808        0.1979110000000000
N        0.0023112613358175       -1.0356586433083983       -0.7025749361656982        0.1055000000000000

        RMSE         7.897980963E-01 kcal/mol
         MAE         5.343747257E-01 kcal/mol
     max. AE         4.719243335E+00 kcal/mol

Coordinates in bohr
s                   x[bohr]                   y[bohr]                   z[bohr]                      q[e]
local coordinates in angstrom
s                      x[a]                      y[a]                       z[a                      q[e]
x        0.5527175069755685        0.0003846021093068        0.3460005774654746        0.1979110000000000
x       -0.3440117916316012        0.0005409693451384        0.5402794207038824        0.1055000000000000
x        0.0938672786796815        0.5501005434942599       -0.0522759789624843       -0.3034110000000000
x        0.0929427054270491       -0.5501005434942599       -0.0545647620579643       -0.3034110000000000
x       -0.5559414187567882        0.0021424423825902        0.3418135023457580        0.1979110000000000
x        0.3448795422166313       -0.0043676509290549        0.5453634213617988        0.1055000000000000
