6
s                      x[A]                      y[A]                      z[A]                      q[e]
N        0.0001222136973839        1.1857781347419405       -0.2212556862788508        0.1979110000000000
N       -0.0001502371810282        1.0618450528138197       -0.6768445080277237        0.1055000000000000
O       -0.2910352272067458        0.0006131730330463        0.1626089256695278       -0.3034110000000000
O        0.2910352272067458       -0.0004443504592312        0.1629089575940831       -0.3034110000000000
N       -0.0010015971271636       -1.1857285199816443       -0.2212929549489776        0.1979110000000000
N        0.0022251616447281       -1.0602445311873656       -0.6771105394383886        0.1055000000000000

        RMSE         7.970003403E-01 kcal/mol
         MAE         5.422136626E-01 kcal/mol
     max. AE         4.690947604E+00 kcal/mol

Coordinates in bohr
s                   x[bohr]                   y[bohr]                   z[bohr]                      q[e]
local coordinates in angstrom
s                      x[a]                      y[a]                       z[a                      q[e]
x        0.5512699192881882       -0.0002309504168352        0.3469945231336169        0.1979110000000000
x       -0.3160938113396696        0.0002839071260041        0.5561452188594558        0.1055000000000000
x        0.1089981218729008        0.5499768722811424       -0.0585382872845912       -0.3034110000000000
x        0.1085331017875433       -0.5499768722811424       -0.0605628717144100       -0.3034110000000000
x       -0.5511630557921308        0.0018927442583845        0.3469462441771611        0.1979110000000000
x        0.3179903890177229       -0.0042049460934095        0.5537361495735240        0.1055000000000000
