6
s                      x[A]                      y[A]                      z[A]                      q[e]
N        1.1384088942805992       -0.3628835870180071       -0.0000644471491836        0.1979110000000000
N        0.9299125955540737       -0.8178682292778231       -0.0005663333974352        0.1055000000000000
O        0.0134492473333353        0.1625645572412489       -0.2910585889314882       -0.3034110000000000
O        0.0128755196799070        0.1620265909490157        0.2910585889314882       -0.3034110000000000
N       -1.1120354647378201       -0.1162588039770299       -0.0010143026239257        0.1979110000000000
N       -0.9697689593309335       -0.5951566698974147        0.0018658371296149        0.1055000000000000

        RMSE         7.475027540E-01 kcal/mol
         MAE         5.022944985E-01 kcal/mol
     max. AE         4.614827454E+00 kcal/mol

Coordinates in bohr
s                   x[bohr]                   y[bohr]                   z[bohr]                      q[e]
local coordinates in angstrom
s                      x[a]                      y[a]                       z[a                      q[e]
x        0.5503803326787420        0.0001217874615236        0.3483331069564883        0.1979110000000000
x       -0.3775123392861133        0.0010702150168527        0.5313677764497697        0.1055000000000000
x        0.1130566021770392        0.5500210195427240       -0.0501468375327931       -0.3034110000000000
x        0.1115979707292354       -0.5500210195427240       -0.0504320602253756       -0.3034110000000000
x       -0.5481836037561152        0.0019167541675529        0.3511222415327211        0.1979110000000000
x        0.3836768730170661       -0.0035259211696825        0.5024921713229560        0.1055000000000000
