6
s                      x[A]                      y[A]                      z[A]                      q[e]
N        1.0521545795834528       -0.2337208783712322        0.0004942233785653        0.1979110000000000
N        0.8405732007235565       -0.7570326173645159       -0.0019472369096452        0.1055000000000000
O       -0.0052125496528893        0.1494051610692810       -0.2912782952802618       -0.3034110000000000
O       -0.0056779982284079        0.1489362575171390        0.2912782952802618       -0.3034110000000000
N       -1.0603944627736213       -0.3382220232817126       -0.0010019957712349        0.1979110000000000
N       -0.8186537256897041       -0.8533909620587413        0.0015459481583159        0.1055000000000000

        RMSE         6.986117074E-01 kcal/mol
         MAE         4.710480153E-01 kcal/mol
     max. AE         4.180154168E+00 kcal/mol

Coordinates in bohr
s                   x[bohr]                   y[bohr]                   z[bohr]                      q[e]
local coordinates in angstrom
s                      x[a]                      y[a]                       z[a                      q[e]
x        0.5620937844269065       -0.0009339468302869        0.2965521045266541        0.1979110000000000
x       -0.4826798701947155        0.0036797444606123        0.5116504879924832        0.1055000000000000
x        0.0576650045752558        0.5504362043699302       -0.0502143860450133       -0.3034110000000000
x        0.0564400059661239       -0.5504362043699302       -0.0504556210661065       -0.3034110000000000
x       -0.5637330025068650        0.0018934975865008        0.2884130518091297        0.1979110000000000
x        0.4850728199471632       -0.0029214186233730        0.5260082537306516        0.1055000000000000
