6
s                      x[A]                      y[A]                      z[A]                      q[e]
N       -0.0005402250060173        1.0409412826640865       -0.2806560969352445        0.1979110000000000
N        0.0004493675146540        0.7969848102856071       -0.7902707730140108        0.1055000000000000
O       -0.2910436101119374        0.0003031749239930        0.1537460408019511       -0.3034110000000000
O        0.2910436101119374       -0.0006309162765180        0.1527735717004679       -0.3034110000000000
N       -0.0010348971692906       -1.0404615692920072       -0.2793062241864608        0.1979110000000000
N        0.0015673968838726       -0.7988829200265504       -0.7910856604826695        0.1055000000000000

        RMSE         6.823168640E-01 kcal/mol
         MAE         4.601721803E-01 kcal/mol
     max. AE         4.174476915E+00 kcal/mol

Coordinates in bohr
s                   x[bohr]                   y[bohr]                   z[bohr]                      q[e]
local coordinates in angstrom
s                      x[a]                      y[a]                       z[a                      q[e]
x        0.5567303869188436        0.0010208773074964        0.3056445234242346        0.1979110000000000
x       -0.4941045350453805       -0.0008491815323737        0.4946101017185356        0.1055000000000000
x        0.0731069092621510        0.5499927136760903       -0.0519717646560593       -0.3034110000000000
x        0.0705840192749747       -0.5499927136760903       -0.0523295587596238       -0.3034110000000000
x       -0.5582700126038844        0.0019556722179708        0.3034177808426648        0.1979110000000000
x        0.4932569760203478       -0.0029619508404153        0.4984204672055057        0.1055000000000000
