6
s                      x[A]                      y[A]                      z[A]                      q[e]
N       -0.0005958508035364        1.0286481908650795       -0.2922566593536713        0.1979110000000000
N        0.0006009247297356        0.7780725546501650       -0.8089335327296847        0.1055000000000000
O       -0.2910543795808844        0.0000243551625101        0.1500572783047351       -0.3034110000000000
O        0.2910543795808844       -0.0008234460631480        0.1491972178844219       -0.3034110000000000
N       -0.0008030757293068       -1.0282899955075970       -0.2905160769832786        0.1979110000000000
N        0.0010711002170584       -0.7801139268357704       -0.8098527024173831        0.1055000000000000

        RMSE         6.778894390E-01 kcal/mol
         MAE         4.587409759E-01 kcal/mol
     max. AE         4.138979046E+00 kcal/mol

Coordinates in bohr
s                   x[bohr]                   y[bohr]                   z[bohr]                      q[e]
local coordinates in angstrom
s                      x[a]                      y[a]                       z[a                      q[e]
x        0.5566193842964822        0.0011259948303177        0.2930310690071565        0.1979110000000000
x       -0.5089358604463996       -0.0011355831612150        0.4982776371052751        0.1055000000000000
x        0.0624178042028234        0.5500130650229167       -0.0465945544779061       -0.3034110000000000
x        0.0601568248193871       -0.5500130650229167       -0.0469048223719426       -0.3034110000000000
x       -0.5588487915310907        0.0015175931863922        0.2905197109362234        0.1979110000000000
x        0.5080177021518466       -0.0020240860631588        0.5024074584189293        0.1055000000000000
