6
s                      x[A]                      y[A]                      z[A]                      q[e]
N        1.0686471266239777       -0.2940586392025516       -0.0008204132969406        0.1979110000000000
N        0.8224321517323658       -0.8190067325386408        0.0005935964072049        0.1055000000000000
O       -0.0068056756035883        0.1223832921313860       -0.2910630405882331       -0.3034110000000000
O       -0.0083051274270047        0.1220811847932507        0.2910630405882331       -0.3034110000000000
N       -1.0742422151698188       -0.3907769866750163        0.0002284185615590        0.1979110000000000
N       -0.8085606840563698       -0.9017901830996676       -0.0003017104784015        0.1055000000000000

        RMSE         7.317465015E-01 kcal/mol
         MAE         4.998734147E-01 kcal/mol
     max. AE         4.394406731E+00 kcal/mol

Coordinates in bohr
s                   x[bohr]                   y[bohr]                   z[bohr]                      q[e]
local coordinates in angstrom
s                      x[a]                      y[a]                       z[a                      q[e]
x        0.5492846543411360        0.0015503564409016        0.2831126901037351        0.1979110000000000
x       -0.5271194546730840       -0.0011217346386729        0.4878533662667905        0.1055000000000000
x       -0.0048368357101936        0.5500294319547763       -0.0123753150801349       -0.3034110000000000
x       -0.0069607144559996       -0.5500294319547763       -0.0143359502444582       -0.3034110000000000
x       -0.5513705312941966       -0.0004316485233176        0.2729236982431757        0.1979110000000000
x        0.5125125721715449        0.0005701501733597        0.5025985120300902        0.1055000000000000
