6
s                      x[A]                      y[A]                      z[A]                      q[e]
N        1.0403649015376999       -0.2769213644676135        0.0001476152983779        0.1979110000000000
N        0.7627519684802885       -0.7943885305392269       -0.0009210030537891        0.1055000000000000
O       -0.0080977156342843        0.1341226732811455       -0.2910474658685001       -0.3034110000000000
O       -0.0075907242993719        0.1328134359678040        0.2910474658685001       -0.3034110000000000
N       -1.0423390129708159       -0.3739351094532646       -0.0021047501957570        0.1979110000000000
N       -0.7562481640682608       -0.8751008521160452        0.0032555416797750        0.1055000000000000

        RMSE         6.997804447E-01 kcal/mol
         MAE         4.736463275E-01 kcal/mol
     max. AE         4.268247105E+00 kcal/mol

Coordinates in bohr
s                   x[bohr]                   y[bohr]                   z[bohr]                      q[e]
local coordinates in angstrom
s                      x[a]                      y[a]                       z[a                      q[e]
x        0.5500000000000000       -0.0002789524858619        0.3094990017454013        0.1979110000000000
x       -0.5500000000000000        0.0017404435323718        0.4559582505859545        0.1055000000000000
x        0.0211338277171629        0.5500000000000000       -0.0341068602549217       -0.3034110000000000
x        0.0196874868650616       -0.5500000000000000       -0.0318826354470755       -0.3034110000000000
x       -0.5500000000000000        0.0039774014324844        0.2923383619561066        0.1979110000000000
x        0.5238356589297561       -0.0061520821647877        0.4823262592991088        0.1055000000000000
