6
s                      x[A]                      y[A]                      z[A]                      q[e]
N       -0.0002960003920561        1.0006850709637030       -0.4319573142591601        0.1979110000000000
N       -0.0009669588405683        0.7279981210561650       -0.9669587392266487        0.1055000000000000
O       -0.2910935498551939       -0.0007559372587225        0.0885071619180093       -0.3034110000000000
O        0.2910935498551939       -0.0020614976366206        0.0894810356925350       -0.3034110000000000
N       -0.0000392807123513       -0.9999539941154295       -0.4271917361164009        0.1979110000000000
N       -0.0001297200263032       -0.7295502095754114       -0.9681052211778217        0.1055000000000000

        RMSE         7.515886813E-01 kcal/mol
         MAE         5.148251973E-01 kcal/mol
     max. AE         4.606438090E+00 kcal/mol

Coordinates in bohr
s                   x[bohr]                   y[bohr]                   z[bohr]                      q[e]
local coordinates in angstrom
s                      x[a]                      y[a]                       z[a                      q[e]
x        0.5283571272393601        0.0005593596740141        0.2059495239086573        0.1979110000000000
x       -0.5581537466118789        0.0018272873832643        0.5333108712484318        0.1055000000000000
x       -0.0707190563659879        0.5500870861136207        0.0657795538244699       -0.3034110000000000
x       -0.0710970509960589       -0.5500870861136207        0.0627249078011118       -0.3034110000000000
x       -0.5339039721006884        0.0000742297883569        0.1987216156203431        0.1979110000000000
x        0.5576889733049484        0.0002451353227002        0.5369275668754199        0.1055000000000000
