6
s                      x[A]                      y[A]                      z[A]                      q[e]
N       -0.0002423872057943        1.0662912558403459       -0.3164015008254532        0.1979110000000000
N       -0.0010812338513988        0.8194815233558307       -0.8304146878318751        0.1055000000000000
O       -0.2910816835823062        0.0009881914949257        0.1353101214166612       -0.3034110000000000
O        0.2910816835823062       -0.0000763739773032        0.1343869798378486       -0.3034110000000000
N       -0.0003156907378515       -1.0671017704871650       -0.3163151523819636        0.1979110000000000
N        0.0006675052261761       -0.8172530011813016       -0.8319826998800357        0.1055000000000000

        RMSE         7.164976367E-01 kcal/mol
         MAE         4.871896324E-01 kcal/mol
     max. AE         4.391917525E+00 kcal/mol

Coordinates in bohr
s                   x[bohr]                   y[bohr]                   z[bohr]                      q[e]
local coordinates in angstrom
s                      x[a]                      y[a]                       z[a                      q[e]
x        0.5535978320835966        0.0004580454352663        0.2896115164439834        0.1979110000000000
x       -0.5036649906378443        0.0020432358567177        0.4975450383535645        0.1055000000000000
x        0.0321244521387598        0.5500646621077330       -0.0216789398650690       -0.3034110000000000
x        0.0295227575179524       -0.5500646621077330       -0.0222459483979947       -0.3034110000000000
x       -0.5546454937957606        0.0005965690348830        0.2907406687209004        0.1979110000000000
x        0.5085596172766600       -0.0012614020647845        0.4959457605400530        0.1055000000000000
