6
s                      x[A]                      y[A]                      z[A]                      q[e]
N        0.0001407022683177        1.0424105758084614       -0.3828650328649762        0.1979110000000000
N       -0.0009781261802028        0.7874236471303170       -0.9316256262674946        0.1055000000000000
O       -0.2910474658685001        0.0005150166529258        0.1049139270408734       -0.3034110000000000
O        0.2910474658685001       -0.0005586747056036        0.1050159358457117       -0.3034110000000000
N        0.0000321576216410       -1.0426830377233849       -0.3831000083425681        0.1979110000000000
N       -0.0000266134048012       -0.7867785519757236       -0.9310692859727954        0.1055000000000000

        RMSE         7.396499054E-01 kcal/mol
         MAE         5.101019065E-01 kcal/mol
     max. AE         4.257937324E+00 kcal/mol

Coordinates in bohr
s                   x[bohr]                   y[bohr]                   z[bohr]                      q[e]
local coordinates in angstrom
s                      x[a]                      y[a]                       z[a                      q[e]
x        0.5500000000000000       -0.0002658887523512        0.2201825222429030        0.1979110000000000
x       -0.5500000000000000        0.0018483905967236        0.5325423789729780        0.1055000000000000
x       -0.0378307366235609        0.5500000000000000        0.0339110064283306       -0.3034110000000000
x       -0.0390098656192629       -0.5500000000000000        0.0322486030417079       -0.3034110000000000
x       -0.5500000000000000       -0.0000607690977477        0.2208624271366163        0.1979110000000000
x        0.5500000000000000        0.0000502920463401        0.5309326004002840        0.1055000000000000
