6
s                      x[A]                      y[A]                      z[A]                      q[e]
N        0.9683439305474951       -0.2917314289507821        0.0002935975522210        0.1979110000000000
N        0.7400011974292929       -0.8580829928381042       -0.0019213953749761        0.1055000000000000
O       -0.0150720664740912        0.1171311542324151       -0.2910474658685001       -0.3034110000000000
O       -0.0161310287983897        0.1172790626376700        0.2910474658685001       -0.3034110000000000
N       -0.9803404990603952       -0.4657408522930865       -0.0004337412757390        0.1979110000000000
N       -0.6937193567299664       -1.0068962708132771        0.0014147647599364        0.1055000000000000

        RMSE         7.131768872E-01 kcal/mol
         MAE         4.907169595E-01 kcal/mol
     max. AE         4.115572834E+00 kcal/mol

Coordinates in bohr
s                   x[bohr]                   y[bohr]                   z[bohr]                      q[e]
local coordinates in angstrom
s                      x[a]                      y[a]                       z[a                      q[e]
x        0.5500000000000000       -0.0005548189648025        0.2012444614045139        0.1979110000000000
x       -0.5500000000000000        0.0036309110374262        0.5500000000000000        0.1055000000000000
x       -0.0375608928362975        0.5500000000000000       -0.0059207188008159       -0.3034110000000000
x       -0.0386195976424037       -0.5500000000000000       -0.0076417255842776       -0.3034110000000000
x       -0.5500000000000000        0.0008196522204534        0.1906211983646383        0.1979110000000000
x        0.5500000000000000       -0.0026735179282289        0.5499990000000000        0.1055000000000000
