6
s                      x[A]                      y[A]                      z[A]                      q[e]
N        1.1055512457671892       -0.3021628341424260        0.0004370645006352        0.1979110000000000
N        0.8981064076320676       -0.7711201434826693       -0.0027113502076879        0.1055000000000000
O        0.0080679223403175        0.1628401944953601       -0.2910474658685001       -0.3034110000000000
O        0.0054043919146051        0.1640651105096012        0.2910474658685001       -0.3034110000000000
N       -1.0952062909351648       -0.1824141130447147        0.0003553097660144        0.1979110000000000
N       -0.9129740813489418       -0.6642771443547976        0.0008915587443599        0.1055000000000000

        RMSE         7.216150021E-01 kcal/mol
         MAE         4.851214514E-01 kcal/mol
     max. AE         4.444074248E+00 kcal/mol

Coordinates in bohr
s                   x[bohr]                   y[bohr]                   z[bohr]                      q[e]
local coordinates in angstrom
s                      x[a]                      y[a]                       z[a                      q[e]
x        0.5500000000000000       -0.0008259322053606        0.3407403271507415        0.1979110000000000
x       -0.4031539943219500        0.0051237093227334        0.5154526130914862        0.1055000000000000
x        0.1091486223557983        0.5500000000000000       -0.0558702600201360       -0.3034110000000000
x        0.1082292499284463       -0.5500000000000000       -0.0613335365824009       -0.3034110000000000
x       -0.5500000000000000       -0.0006714381474678        0.3468521310872797        0.1979110000000000
x        0.4126233106640286       -0.0016848018515972        0.4921757844311284        0.1055000000000000
