6
s                      x[A]                      y[A]                      z[A]                      q[e]
N        0.0002194222664435        1.0092742594182298       -0.3235738389081964        0.1979110000000000
N       -0.0003463881184811        0.7242450108389920       -0.8412567397834830        0.1055000000000000
O       -0.2910474658685001        0.0001006762141450        0.1376132479274204       -0.3034110000000000
O        0.2910474658685001       -0.0000481629174803        0.1372784151885729       -0.3034110000000000
N       -0.0003052135474949       -1.0090931001258543       -0.3234283132581987        0.1979110000000000
N       -0.0005021940501989       -0.7240890422013907       -0.8411314498407559        0.1055000000000000

        RMSE         6.792443488E-01 kcal/mol
         MAE         4.596094079E-01 kcal/mol
     max. AE         4.168630909E+00 kcal/mol

Coordinates in bohr
s                   x[bohr]                   y[bohr]                   z[bohr]                      q[e]
local coordinates in angstrom
s                      x[a]                      y[a]                       z[a                      q[e]
x        0.5500000000000000       -0.0004146479894054        0.2868364684480139        0.1979110000000000
x       -0.5500000000000000        0.0006545786770420        0.4795769430428341        0.1055000000000000
x        0.0351216339282277        0.5500000000000000       -0.0279692517971664       -0.3034110000000000
x        0.0344521947612833       -0.5500000000000000       -0.0277922660037853       -0.3034110000000000
x       -0.5500000000000000        0.0005767700145448        0.2863973504008951        0.1979110000000000
x        0.5500000000000000        0.0009490092167103        0.4791988854634673        0.1055000000000000
