6
s                      x[A]                      y[A]                      z[A]                      q[e]
N       -0.0000321458653981        0.9435142546538807       -0.3529666711091882        0.1979110000000000
N        0.0002242412892394        0.6832100331969458       -0.9051497024899708        0.1055000000000000
O       -0.2910474658685001        0.0000098899306333        0.1332405578662078       -0.3034110000000000
O        0.2910474658685001        0.0000882127606260        0.1326438470562180       -0.3034110000000000
N       -0.0005132451912629       -0.9431034898132741       -0.3525866314872594        0.1979110000000000
N       -0.0000679887550122       -0.6832096447669755       -0.9051493431145703        0.1055000000000000

        RMSE         6.835482415E-01 kcal/mol
         MAE         4.679376295E-01 kcal/mol
     max. AE         3.860006332E+00 kcal/mol

Coordinates in bohr
s                   x[bohr]                   y[bohr]                   z[bohr]                      q[e]
local coordinates in angstrom
s                      x[a]                      y[a]                       z[a                      q[e]
x        0.5500000000000000        0.0000607468816682        0.2024245570068060        0.1979110000000000
x       -0.5500000000000000       -0.0004237546226821        0.5500000000000000        0.1055000000000000
x        0.0135732132222056        0.5500000000000000       -0.0125324752925210       -0.3034110000000000
x        0.0128460263498715       -0.5500000000000000       -0.0116580425006218       -0.3034110000000000
x       -0.5500000000000000        0.0009698928466952        0.2013670566284370        0.1979110000000000
x        0.5500000000000000        0.0001284801265839        0.5499990000000000        0.1055000000000000
