6
s                      x[A]                      y[A]                      z[A]                      q[e]
N       -0.0005189572510615        0.9911946491524973       -0.3283474692461650        0.1979110000000000
N        0.0003605652305468        0.7199753395749355       -0.8575748435542557        0.1055000000000000
O       -0.2910580847579733        0.0003102994943353        0.1380830149374945       -0.3034110000000000
O        0.2910580847579733       -0.0005999682281000        0.1374960241294849       -0.3034110000000000
N       -0.0002565694778617       -0.9912380084693950       -0.3282368311410562        0.1979110000000000
N        0.0000959969006547       -0.7187620268751143       -0.8586017973189258        0.1055000000000000

        RMSE         6.779979507E-01 kcal/mol
         MAE         4.616334725E-01 kcal/mol
     max. AE         4.044562289E+00 kcal/mol

Coordinates in bohr
s                   x[bohr]                   y[bohr]                   z[bohr]                      q[e]
local coordinates in angstrom
s                      x[a]                      y[a]                       z[a                      q[e]
x        0.5525432126291889        0.0009806870753266        0.2594145361854316        0.1979110000000000
x       -0.5439960491175952       -0.0006813695360961        0.5053382414989755        0.1055000000000000
x        0.0319961844115824        0.5500200667928610       -0.0258716277867279       -0.3034110000000000
x        0.0300431423529517       -0.5500200667928610       -0.0264840046947938       -0.3034110000000000
x       -0.5527563217656279        0.0004848460453104        0.2593437487430492        0.1979110000000000
x        0.5469544624193077       -0.0001814078511302        0.5048176449890889        0.1055000000000000
