6
s                      x[A]                      y[A]                      z[A]                      q[e]
N        1.1452338145816268       -0.3504973651266647        0.0011292592109239        0.1979110000000000
N        0.9587366277484735       -0.8018057709174001       -0.0023728364115742        0.1055000000000000
O        0.0121452523717371        0.1694965928698627       -0.2910474658685001       -0.3034110000000000
O        0.0117494695881435        0.1688975945977418        0.2910474658685001       -0.3034110000000000
N       -1.1160240056279418       -0.0945417999158200       -0.0013814782300991        0.1979110000000000
N       -0.9994566139523507       -0.5633673649529706        0.0016900535628589        0.1055000000000000

        RMSE         7.516211553E-01 kcal/mol
         MAE         5.072098968E-01 kcal/mol
     max. AE         4.552303206E+00 kcal/mol

Coordinates in bohr
s                   x[bohr]                   y[bohr]                   z[bohr]                      q[e]
local coordinates in angstrom
s                      x[a]                      y[a]                       z[a                      q[e]
x        0.5500000000000000       -0.0021339906332968        0.3498018387264264        0.1979110000000000
x       -0.3508210264970103        0.0044840109583895        0.5500000000000000        0.1055000000000000
x        0.1275086067681794        0.5500000000000000       -0.0612106284858608       -0.3034110000000000
x        0.1261523722556352       -0.5500000000000000       -0.0611744607115315       -0.3034110000000000
x       -0.5500000000000000        0.0026106155031696        0.3497155855445915        0.1979110000000000
x        0.3473318194828673       -0.0031937383711575        0.5177330915768101        0.1055000000000000
