6
s                      x[A]                      y[A]                      z[A]                      q[e]
N       -0.0001318182728159        1.1626888879906372       -0.2504106835818822        0.1979110000000000
N       -0.0003940868268232        1.0206419146017238       -0.7237059871570017        0.1055000000000000
O       -0.2910474658685001        0.0006097542496457        0.1522709310659276       -0.3034110000000000
O        0.2910474658685001       -0.0006624221385460        0.1533847307973353       -0.3034110000000000
N        0.0010203094117841       -1.1625919249267123       -0.2503529393160380        0.1979110000000000
N       -0.0016551985255293       -1.0198371876978825       -0.7248433329700713        0.1055000000000000

        RMSE         7.850911649E-01 kcal/mol
         MAE         5.342593691E-01 kcal/mol
     max. AE         4.679600435E+00 kcal/mol

Coordinates in bohr
s                   x[bohr]                   y[bohr]                   z[bohr]                      q[e]
local coordinates in angstrom
s                      x[a]                      y[a]                       z[a                      q[e]
x        0.5500000000000000        0.0002491004339530        0.3229952896580526        0.1979110000000000
x       -0.3557991705470870        0.0007447161723466        0.5500000000000000        0.1055000000000000
x        0.0801734485303637        0.5500000000000000       -0.0464044508759113       -0.3034110000000000
x        0.0807517538431000       -0.5500000000000000       -0.0495469300231899       -0.3034110000000000
x       -0.5500000000000000       -0.0019281053514989        0.3227820247419287        0.1979110000000000
x        0.3584238895612337        0.0031278718965120        0.5497931424367271        0.1055000000000000
