6
s                      x[A]                      y[A]                      z[A]                      q[e]
N        0.0001712353418882        1.0424135339920935       -0.3828675840494671        0.1979110000000000
N       -0.0009643660572588        0.7874317249481646       -0.9316325927057477        0.1055000000000000
O       -0.2910474658685001        0.0005163799404680        0.1049175338079888       -0.3034110000000000
O        0.2910474658685001       -0.0005636728595669        0.1050132402088652       -0.3034110000000000
N        0.0000561617594351       -1.0426674964913134       -0.3830866053374934        0.1979110000000000
N       -0.0000181634911086       -0.7867647717375214       -0.9310574016767689        0.1055000000000000

        RMSE         7.396500586E-01 kcal/mol
         MAE         5.101202847E-01 kcal/mol
     max. AE         4.257698740E+00 kcal/mol

Coordinates in bohr
s                   x[bohr]                   y[bohr]                   z[bohr]                      q[e]
local coordinates in angstrom
s                      x[a]                      y[a]                       z[a                      q[e]
x        0.5500000000000000       -0.0003235878991678        0.2201899041315916        0.1979110000000000
x       -0.5500000000000000        0.0018223877329067        0.5325625364613620        0.1055000000000000
x       -0.0378238926353380        0.5500000000000000        0.0339085060292196       -0.3034110000000000
x       -0.0390198917461935       -0.5500000000000000        0.0322447772762774       -0.3034110000000000
x       -0.5500000000000000       -0.0001061303440562        0.2208236453503887        0.1979110000000000
x        0.5500000000000000        0.0000343240236775        0.5308982130203345        0.1055000000000000
