6
s                      x[A]                      y[A]                      z[A]                      q[e]
N        1.1559464696330093       -0.1481352008030062       -0.0000190525576764        0.1979110000000000
N        1.0435558868872483       -0.6062399910060207        0.0010192590697551        0.1055000000000000
O       -0.0060656842906477        0.1691557113033424       -0.2910423945825784       -0.3034110000000000
O       -0.0067758673720457        0.1692814061400103        0.2910423945825784       -0.3034110000000000
N       -1.1682890705705147       -0.2787488654674498       -0.0009580932929670        0.1979110000000000
N       -1.0309839339539646       -0.7256703657861121        0.0006350360624424        0.1055000000000000

        RMSE         7.770547750E-01 kcal/mol
         MAE         5.283082241E-01 kcal/mol
     max. AE         4.540511806E+00 kcal/mol

Coordinates in bohr
s                   x[bohr]                   y[bohr]                   z[bohr]                      q[e]
local coordinates in angstrom
s                      x[a]                      y[a]                       z[a                      q[e]
x        0.5496778851511408        0.0000360041159979        0.3511695007418894        0.1979110000000000
x       -0.3210881699642414       -0.0019261204927261        0.5416912959153706        0.1055000000000000
x        0.1210475791458521        0.5499904166585043       -0.0721364042037749       -0.3034110000000000
x        0.1206698647683879       -0.5499904166585043       -0.0734459285745288       -0.3034110000000000
x       -0.5486076204051642        0.0018105339263457        0.3452812077539420        0.1979110000000000
x        0.3073618303178591       -0.0012000442378053        0.5641894465152291        0.1055000000000000
