6
s                      x[A]                      y[A]                      z[A]                      q[e]
N        1.1469962066382640       -0.1668740966997007        0.0013163164301022        0.1979110000000000
N        1.0228837453927460       -0.6331565667473340       -0.0038988655476234        0.1055000000000000
O       -0.0065073320971649        0.1649930150974138       -0.2912467159658350       -0.3034110000000000
O       -0.0069842568611353        0.1651831109079589        0.2912467159658350       -0.3034110000000000
N       -1.1629543505439563       -0.2818069480643207       -0.0021625641868597        0.1979110000000000
N       -1.0093827945638498       -0.7590746547542577        0.0038300974690996        0.1055000000000000

        RMSE         7.665619156E-01 kcal/mol
         MAE         5.163846036E-01 kcal/mol
     max. AE         4.478812459E+00 kcal/mol

Coordinates in bohr
s                   x[bohr]                   y[bohr]                   z[bohr]                      q[e]
local coordinates in angstrom
s                      x[a]                      y[a]                       z[a                      q[e]
x        0.5470843153334499       -0.0024874775473336        0.3439073375570842        0.1979110000000000
x       -0.3437188966856866        0.0073677880849914        0.5385776711573271        0.1055000000000000
x        0.1072307121319227        0.5503765281144339       -0.0690156290867918       -0.3034110000000000
x        0.1071377085579570       -0.5503765281144339       -0.0699813724997398       -0.3034110000000000
x       -0.5686256429968353        0.0040866540418882        0.3340391853134861        0.1979110000000000
x        0.3487208136227764       -0.0072378352504074        0.5709555304938476        0.1055000000000000
