6
s                      x[A]                      y[A]                      z[A]                      q[e]
N        1.1699985756379738       -0.2771756855568187        0.0016639780623928        0.1979110000000000
N        1.0279001784755406       -0.7319695716010101       -0.0031179775357853        0.1055000000000000
O        0.0061673868898522        0.1691881593125382       -0.2911021517490402       -0.3034110000000000
O        0.0058402456609482        0.1692491390112276        0.2911021517490402       -0.3034110000000000
N       -1.1573403898729135       -0.1453561291531445       -0.0009923871832632        0.1979110000000000
N       -1.0407542575315367       -0.6110951323936202        0.0030177326604237        0.1055000000000000

        RMSE         7.743382563E-01 kcal/mol
         MAE         5.249282086E-01 kcal/mol
     max. AE         4.629603726E+00 kcal/mol

Coordinates in bohr
s                   x[bohr]                   y[bohr]                   z[bohr]                      q[e]
local coordinates in angstrom
s                      x[a]                      y[a]                       z[a                      q[e]
x        0.5528287440674831       -0.0031444628166923        0.3464879523580748        0.1979110000000000
x       -0.3205579551295159        0.0058921236079641        0.5654228695821075        0.1055000000000000
x        0.1259752179803399        0.5501033413371506       -0.0633094929489744       -0.3034110000000000
x        0.1257512412985307       -0.5501033413371506       -0.0638971100302115       -0.3034110000000000
x       -0.5555529229932290        0.0018753399867819        0.3512219031235873        0.1979110000000000
x        0.3316569755579621       -0.0057026882480500        0.5409780982445227        0.1055000000000000
