6
s                      x[A]                      y[A]                      z[A]                      q[e]
N        0.0005232214623459        0.9472352237171875       -0.4158591927136465        0.1979110000000000
N       -0.0006972287249335        0.6837006625479225       -0.9545120987249339        0.1055000000000000
O       -0.2916830050902714        0.0039973488929438        0.1015577893410597       -0.3034110000000000
O        0.2916830050902714        0.0042318030790719        0.1020920299650119       -0.3034110000000000
N        0.0000812332692066       -0.9451421780722195       -0.4211632527278831        0.1979110000000000
N       -0.0004499950563898       -0.6783815260884715       -0.9507586841501311        0.1055000000000000

        RMSE         7.277493187E-01 kcal/mol
         MAE         4.958345739E-01 kcal/mol
     max. AE         4.506586229E+00 kcal/mol

Coordinates in bohr
s                   x[bohr]                   y[bohr]                   z[bohr]                      q[e]
local coordinates in angstrom
s                      x[a]                      y[a]                       z[a                      q[e]
x        0.5216672618853408       -0.0009887452667954        0.1917472047202864        0.1979110000000000
x       -0.5516817014161006        0.0013175713369264        0.5551583979822681        0.1055000000000000
x       -0.0396614645915179        0.5512009950711345        0.0499922777071760       -0.3034110000000000
x       -0.0386327399999118       -0.5512009950711345        0.0495957285631050       -0.3034110000000000
x       -0.5117661929755286       -0.0001535086310760        0.1959990341088087        0.1979110000000000
x        0.5537262530019689        0.0008503674143867        0.5430271862205700        0.1055000000000000
