6
s                      x[A]                      y[A]                      z[A]                      q[e]
N        1.1034913856033539       -0.4035260863623534       -0.0009389955421036        0.1979110000000000
N        0.8222094798865569       -0.8860272880012087        0.0012320781211325        0.1055000000000000
O        0.0185665087434660        0.1398461008203669       -0.2911187352781315       -0.3034110000000000
O        0.0168833484798617        0.1386221399024614        0.2911187352781315       -0.3034110000000000
N       -1.0818717169898640       -0.1981761592602982       -0.0005399383470062        0.1979110000000000
N       -0.8609170063512336       -0.6920870467506590        0.0011098607726991        0.1055000000000000

        RMSE         7.344321138E-01 kcal/mol
         MAE         4.932268378E-01 kcal/mol
     max. AE         4.617579631E+00 kcal/mol

Coordinates in bohr
s                   x[bohr]                   y[bohr]                   z[bohr]                      q[e]
local coordinates in angstrom
s                      x[a]                      y[a]                       z[a                      q[e]
x        0.5612851760538433        0.0017744444076015        0.3235239564132826        0.1979110000000000
x       -0.4816308058348113       -0.0023282902141091        0.4855039189505987        0.1055000000000000
x        0.0663389110684420        0.5501346796653266       -0.0086618318468084       -0.3034110000000000
x        0.0625385013609048       -0.5501346796653266       -0.0096735414729494       -0.3034110000000000
x       -0.5356471212602401        0.0010203356004741        0.3392562820963576        0.1979110000000000
x        0.4805172959272568       -0.0020973328977902        0.4528642654267969        0.1055000000000000
