6
s                      x[A]                      y[A]                      z[A]                      q[e]
N       -0.0007401304193011        1.1417719254454426       -0.3013935222416755        0.1979110000000000
N        0.0007496274782526        0.9270024182881534       -0.7941334044866609        0.1055000000000000
O       -0.2911171013004406        0.0019115434369568        0.1321040468234070       -0.3034110000000000
O        0.2911171013004406        0.0007782747814733        0.1320751486775355       -0.3034110000000000
N       -0.0005475434681244       -1.1426526073020074       -0.3023358277955911        0.1979110000000000
N        0.0014304338917256       -0.9225533339345527       -0.7943268718298567        0.1055000000000000

        RMSE         7.707861899E-01 kcal/mol
         MAE         5.191122675E-01 kcal/mol
     max. AE         4.795831274E+00 kcal/mol

Coordinates in bohr
s                   x[bohr]                   y[bohr]                   z[bohr]                      q[e]
local coordinates in angstrom
s                      x[a]                      y[a]                       z[a                      q[e]
x        0.5498517861556138        0.0013986437895994        0.3212437690963270        0.1979110000000000
x       -0.4497683913450601       -0.0014165906300150        0.5015388372084999        0.1055000000000000
x        0.0332934800708244        0.5501315918949956       -0.0179212691878092       -0.3034110000000000
x        0.0320575194036792       -0.5501315918949956       -0.0196710389732289       -0.3034110000000000
x       -0.5492968302646659        0.0010347071965384        0.3236170862219296        0.1979110000000000
x        0.4547463221542785       -0.0027031282959342        0.4947535014616733        0.1055000000000000
