6
s                      x[A]                      y[A]                      z[A]                      q[e]
N        1.0960046830167820       -0.3146833454740769       -0.0003094396375667        0.1979110000000000
N        0.8744523261707102       -0.7891944490545868       -0.0014261043150436        0.1055000000000000
O        0.0078567352755697        0.1584183536247711       -0.2910474658685001       -0.3034110000000000
O        0.0060320057111736        0.1579373078114448        0.2910474658685001       -0.3034110000000000
N       -1.0875728884373941       -0.1993003763187021       -0.0009876910599667        0.1979110000000000
N       -0.8870182607414818       -0.6876737479754705        0.0034885650488234        0.1055000000000000

        RMSE         7.174997823E-01 kcal/mol
         MAE         4.826271719E-01 kcal/mol
     max. AE         4.442085956E+00 kcal/mol

Coordinates in bohr
s                   x[bohr]                   y[bohr]                   z[bohr]                      q[e]
local coordinates in angstrom
s                      x[a]                      y[a]                       z[a                      q[e]
x        0.5500000000000000        0.0005847561673620        0.3336401592856564        0.1979110000000000
x       -0.4242025506475942        0.0026949465817660        0.5076530093164333        0.1055000000000000
x        0.0969373484744313        0.5500000000000000       -0.0501097901350288       -0.3034110000000000
x        0.0942086291713124       -0.5500000000000000       -0.0524056138616116       -0.3034110000000000
x       -0.5500000000000000        0.0018664655999002        0.3423109446381584        0.1979110000000000
x        0.4378040496928449       -0.0065924325131207        0.4823416218299278        0.1055000000000000
