6
s                      x[A]                      y[A]                      z[A]                      q[e]
N       -0.0000734395011348        1.0459446527114389       -0.3467686485815353        0.1979110000000000
N        0.0001210305991110        0.7647027626461573       -0.8654923390077779        0.1055000000000000
O       -0.2910474658685001        0.0003451857603594        0.1230955690583841       -0.3034110000000000
O        0.2910474658685001        0.0000598257706879        0.1230210475948472       -0.3034110000000000
N       -0.0006089744035524       -1.0457324820179026       -0.3465982113530872        0.1979110000000000
N       -0.0001313156652644       -0.7637717635210843       -0.8663771444822687        0.1055000000000000

        RMSE         7.137332910E-01 kcal/mol
         MAE         4.856917029E-01 kcal/mol
     max. AE         4.339131017E+00 kcal/mol

Coordinates in bohr
s                   x[bohr]                   y[bohr]                   z[bohr]                      q[e]
local coordinates in angstrom
s                      x[a]                      y[a]                       z[a                      q[e]
x        0.5500000000000000        0.0001387805439351        0.2812361937307719        0.1979110000000000
x       -0.5470511028388289       -0.0002287146851198        0.4807883085443051        0.1055000000000000
x        0.0047961004664603        0.5500000000000000       -0.0030160116683832       -0.3034110000000000
x        0.0043485975054889       -0.5500000000000000       -0.0033482251383953       -0.3034110000000000
x       -0.5500000000000000        0.0011507948401280        0.2807219060519214        0.1979110000000000
x        0.5494564507404833        0.0002481506433321        0.4804638502127301        0.1055000000000000
