6
s                      x[A]                      y[A]                      z[A]                      q[e]
N        0.0006107180647898        1.0240019793018766       -0.3140001053960907        0.1979110000000000
N       -0.0025736438843776        0.7396504883400745       -0.8209112845493347        0.1055000000000000
O       -0.2910474658685001        0.0005810113894953        0.1407664968301688       -0.3034110000000000
O        0.2910474658685001       -0.0000761143898872        0.1400363257507445       -0.3034110000000000
N       -0.0011700884498744       -1.0239417143171052       -0.3139534012168813        0.1979110000000000
N        0.0022861545920343       -0.7376300570628692       -0.8230456595019284        0.1055000000000000

        RMSE         6.811536228E-01 kcal/mol
         MAE         4.599748060E-01 kcal/mol
     max. AE         4.219729834E+00 kcal/mol

Coordinates in bohr
s                   x[bohr]                   y[bohr]                   z[bohr]                      q[e]
local coordinates in angstrom
s                      x[a]                      y[a]                       z[a                      q[e]
x        0.5500000000000000       -0.0011540898823223        0.3041628891291968        0.1979110000000000
x       -0.5363221876566809        0.0048634820859331        0.4662195102101056        0.1055000000000000
x        0.0445909132984687        0.5500000000000000       -0.0331680116032665       -0.3034110000000000
x        0.0427395978225431       -0.5500000000000000       -0.0333043213618660       -0.3034110000000000
x       -0.5500000000000000        0.0022111467128241        0.3040188088355032        0.1979110000000000
x        0.5418490649088048       -0.0043202060594026        0.4656723257002168        0.1055000000000000
