6
s                      x[A]                      y[A]                      z[A]                      q[e]
N        0.9624274786220668       -0.4225450620175670       -0.0009389916739649        0.1979110000000000
N        0.6763882864107179       -0.9502666647934721        0.0011609620565078        0.1055000000000000
O        0.0055182496345352        0.1206239910166793       -0.2910619273254368       -0.3034110000000000
O        0.0041246764848895        0.1202969871588104        0.2910619273254368       -0.3034110000000000
N       -0.9623037572044837       -0.3301434788369336        0.0006822863342992        0.1979110000000000
N       -0.6995799408188592       -0.8761024969963006       -0.0018643285990797        0.1055000000000000

        RMSE         6.997826180E-01 kcal/mol
         MAE         4.800081285E-01 kcal/mol
     max. AE         4.019927763E+00 kcal/mol

Coordinates in bohr
s                   x[bohr]                   y[bohr]                   z[bohr]                      q[e]
local coordinates in angstrom
s                      x[a]                      y[a]                       z[a                      q[e]
x        0.5317764237038318        0.0017744370978789        0.2133608815875050        0.1979110000000000
x       -0.5587489887211632       -0.0021939003288480        0.5255136820996995        0.1055000000000000
x       -0.0011863648942381        0.5500273281929857        0.0157664593066329       -0.3034110000000000
x       -0.0034712281030806       -0.5500273281929857        0.0143185531887866       -0.3034110000000000
x       -0.5451730425447749       -0.0012893343109681        0.2201996579606202        0.1979110000000000
x        0.5585643766780777        0.0035230704601190        0.5246400345495204        0.1055000000000000
