6
s                      x[A]                      y[A]                      z[A]                      q[e]
N       -0.0006056152079617        0.9605279881337095       -0.3519795059144124        0.1979110000000000
N        0.0012241480058538        0.6883358193706975       -0.8894236227202122        0.1055000000000000
O       -0.2910872389003685       -0.0005871682004897        0.1307340276957987       -0.3034110000000000
O        0.2910872389003685       -0.0007785820376811        0.1304541534590898       -0.3034110000000000
N        0.0000507329527214       -0.9601175149475869       -0.3506790249219915        0.1979110000000000
N       -0.0009750855900570       -0.6895652134569703       -0.8901270287968642        0.1055000000000000

        RMSE         6.813765406E-01 kcal/mol
         MAE         4.646548980E-01 kcal/mol
     max. AE         3.984997004E+00 kcal/mol

Coordinates in bohr
s                   x[bohr]                   y[bohr]                   z[bohr]                      q[e]
local coordinates in angstrom
s                      x[a]                      y[a]                       z[a                      q[e]
x        0.5425243345398485        0.0011444468804598        0.2315096580487079        0.1979110000000000
x       -0.5575689439699545       -0.0023133044680890        0.5245255603203987        0.1055000000000000
x        0.0128147264531435        0.5500751601374105       -0.0129354820853109       -0.3034110000000000
x        0.0121793208631971       -0.5500751601374105       -0.0128528931230960       -0.3034110000000000
x       -0.5438403305862494       -0.0000958713861792        0.2292939407579979        0.1979110000000000
x        0.5570125056276538        0.0018426447140882        0.5271436914599690        0.1055000000000000
