6
s                      x[A]                      y[A]                      z[A]                      q[e]
N        1.0956311230943077       -0.1826525240549323       -0.0011663520502260        0.1979110000000000
N        0.9128275104891568       -0.6643726795713313        0.0023158642034705        0.1055000000000000
O       -0.0061991091003920        0.1638593248521397       -0.2910474658685001       -0.3034110000000000
O       -0.0071698514379261        0.1634576515611186        0.2910474658685001       -0.3034110000000000
N       -1.1042364928023503       -0.3012676734025111        0.0000173725204094        0.1979110000000000
N       -0.9003254385016998       -0.7710008815581824       -0.0011681256791153        0.1055000000000000

        RMSE         7.220724168E-01 kcal/mol
         MAE         4.854233976E-01 kcal/mol
     max. AE         4.303085458E+00 kcal/mol

Coordinates in bohr
s                   x[bohr]                   y[bohr]                   z[bohr]                      q[e]
local coordinates in angstrom
s                      x[a]                      y[a]                       z[a                      q[e]
x        0.5500000000000000        0.0022040859407934        0.3477727248446110        0.1979110000000000
x       -0.4129163003236226       -0.0043763490883108        0.4920225939148336        0.1055000000000000
x        0.1020464001998751        0.5500000000000000       -0.0707005010170497       -0.3034110000000000
x        0.1004866985758718       -0.5500000000000000       -0.0719287726647220       -0.3034110000000000
x       -0.5500000000000000       -0.0000328293056827        0.3377346002091552        0.1979110000000000
x        0.4006076991916513        0.0022074376136423        0.5187919913272470        0.1055000000000000
