6
s                      x[A]                      y[A]                      z[A]                      q[e]
N        0.9785407685892543       -0.4110549857666986       -0.0010350108160106        0.1979110000000000
N        0.6929758309558588       -0.9373843377720659        0.0012670969719682        0.1055000000000000
O        0.0057274040438526        0.1243067958387152       -0.2910555522796723       -0.3034110000000000
O        0.0042691824012914        0.1238575514217668        0.2910555522796723       -0.3034110000000000
N       -0.9775026224930276       -0.3173517278728090        0.0006484532957479        0.1979110000000000
N       -0.7149382525718364       -0.8612059367387258       -0.0017487856636726        0.1055000000000000

        RMSE         6.969428246E-01 kcal/mol
         MAE         4.781500937E-01 kcal/mol
     max. AE         4.052893883E+00 kcal/mol

Coordinates in bohr
s                   x[bohr]                   y[bohr]                   z[bohr]                      q[e]
local coordinates in angstrom
s                      x[a]                      y[a]                       z[a                      q[e]
x        0.5384552182108564        0.0019558869791467        0.2258334962098161        0.1979110000000000
x       -0.5545234931187224       -0.0023944662514168        0.5188761007921130        0.1055000000000000
x        0.0071797201076151        0.5500152811024535        0.0081075032780973       -0.3034110000000000
x        0.0046672731323270       -0.5500152811024535        0.0066926274193975       -0.3034110000000000
x       -0.5497307796804307       -0.0012253991341140        0.2334413209191553        0.1979110000000000
x        0.5562070318474071        0.0033047259564682        0.5150992894596129        0.1055000000000000
