6
s                      x[A]                      y[A]                      z[A]                      q[e]
N        0.9756174377064538       -0.3003217534793015       -0.0003223682792230        0.1979110000000000
N        0.7239742721661179       -0.8553613579778235       -0.0005259032928979        0.1055000000000000
O       -0.0139386758000412        0.1123573697683072       -0.2910433997918641       -0.3034110000000000
O       -0.0151063007647167        0.1125547958302505        0.2910433997918641       -0.3034110000000000
N       -0.9782475913747383       -0.4758133813220456        0.0003685095966109        0.1979110000000000
N       -0.6883447119477488       -1.0039569484110058       -0.0001392037056082        0.1055000000000000

        RMSE         7.132790358E-01 kcal/mol
         MAE         4.897328151E-01 kcal/mol
     max. AE         3.984450136E+00 kcal/mol

Coordinates in bohr
s                   x[bohr]                   y[bohr]                   z[bohr]                      q[e]
local coordinates in angstrom
s                      x[a]                      y[a]                       z[a                      q[e]
x        0.5462349332406120        0.0006091877592667        0.2221793497719773        0.1979110000000000
x       -0.5653190847970109        0.0009938131920535        0.5233720143260143        0.1055000000000000
x       -0.0431530729720180        0.5499923162287530        0.0014749475603821       -0.3034110000000000
x       -0.0442703759772485       -0.5499923162287530       -0.0004639768494599       -0.3034110000000000
x       -0.5339327137753571       -0.0006963822121975        0.2015660556353396        0.1979110000000000
x        0.5534476315388019        0.0002630568792483        0.5389480667763564        0.1055000000000000
