6
s                      x[A]                      y[A]                      z[A]                      q[e]
N        0.9946494696601013       -0.4653898229363471       -0.0005804683813471        0.1979110000000000
N        0.7051400816619773       -0.9905565544945574        0.0006093296765214        0.1055000000000000
O        0.0135863713107232        0.1164249859871180       -0.2910304168910791       -0.3034110000000000
O        0.0131396815510458        0.1164518249275590        0.2910304168910791       -0.3034110000000000
N       -0.9901838954718508       -0.2850533887792220       -0.0000116718399366        0.1979110000000000
N       -0.7408834362015084       -0.8390265350533109       -0.0006211932816846        0.1055000000000000

        RMSE         7.099446541E-01 kcal/mol
         MAE         4.891982479E-01 kcal/mol
     max. AE         4.118691207E+00 kcal/mol

Coordinates in bohr
s                   x[bohr]                   y[bohr]                   z[bohr]                      q[e]
local coordinates in angstrom
s                      x[a]                      y[a]                       z[a                      q[e]
x        0.5404505336009606        0.0010969262652338        0.2141769135087088        0.1979110000000000
x       -0.5475152968747352       -0.0011514662087393        0.5312599021635833        0.1055000000000000
x        0.0027608694758783        0.5499677821019553        0.0336105014503119       -0.3034110000000000
x        0.0021985774046698       -0.5499677821019553        0.0329788838830609       -0.3034110000000000
x       -0.5517493395700512        0.0000220565808604        0.2331703464988095        0.1979110000000000
x        0.5611239642703367        0.0011738851733583        0.5148935063625686        0.1055000000000000
