6
s                      x[A]                      y[A]                      z[A]                      q[e]
N        0.9609975191388699       -0.3151630970564443       -0.0000289535433349        0.1979110000000000
N        0.7086142646394534       -0.8698515306760852       -0.0005185758530719        0.1055000000000000
O       -0.0123630876727378        0.1071860776174757       -0.2910466291928153       -0.3034110000000000
O       -0.0134430440852272        0.1075656780387867        0.2910466291928153       -0.3034110000000000
N       -0.9614240284794517       -0.4925005013436808        0.0006069347075794        0.1979110000000000
N       -0.6659730396146936       -1.0100592793048315       -0.0000722402129698        0.1055000000000000

        RMSE         7.169054558E-01 kcal/mol
         MAE         4.930349785E-01 kcal/mol
     max. AE         4.177270530E+00 kcal/mol

Coordinates in bohr
s                   x[bohr]                   y[bohr]                   z[bohr]                      q[e]
local coordinates in angstrom
s                      x[a]                      y[a]                       z[a                      q[e]
x        0.5409782776850989        0.0000547142672644        0.2115323024991085        0.1979110000000000
x       -0.5649367967534999        0.0009799663375816        0.5327201599029650        0.1055000000000000
x       -0.0520683948079750        0.5499984189121001        0.0139252298122301       -0.3034110000000000
x       -0.0528539734350488       -0.5499984189121001        0.0119096907023959       -0.3034110000000000
x       -0.5186998398266951       -0.0011469403733599        0.1976669173218397        0.1979110000000000
x        0.5572969337499671        0.0001365142177576        0.5301192096703744        0.1055000000000000
