6
s                      x[A]                      y[A]                      z[A]                      q[e]
N        1.0571737942129984       -0.4322849338723268       -0.0006438169074303        0.1979110000000000
N        0.7742913504622445       -0.9299738606390319        0.0010187127560906        0.1055000000000000
O        0.0152534960539111        0.1276842462018185       -0.2910474658685001       -0.3034110000000000
O        0.0147305079257757        0.1269226869407908        0.2910474658685001       -0.3034110000000000
N       -1.0516577589447325       -0.2388649309440247       -0.0006747676973281        0.1979110000000000
N       -0.7921611378511038       -0.7658425459935821        0.0007257905581487        0.1055000000000000

        RMSE         7.167548530E-01 kcal/mol
         MAE         4.870390475E-01 kcal/mol
     max. AE         4.371063510E+00 kcal/mol

Coordinates in bohr
s                   x[bohr]                   y[bohr]                   z[bohr]                      q[e]
local coordinates in angstrom
s                      x[a]                      y[a]                       z[a                      q[e]
x        0.5500000000000000        0.0012166376299826        0.2770667023445355        0.1979110000000000
x       -0.5081226020774470       -0.0019250881095215        0.5021762319321064        0.1055000000000000
x        0.0331725372217171        0.5500000000000000        0.0090840042930866       -0.3034110000000000
x        0.0314402813304364       -0.5500000000000000        0.0093011549306024       -0.3034110000000000
x       -0.5500000000000000        0.0012751261462559        0.3073812048554464        0.1979110000000000
x        0.5500000000000000       -0.0013715453793443        0.4562910667958331        0.1055000000000000
