6
s                      x[A]                      y[A]                      z[A]                      q[e]
N        1.0779373922060225       -0.2130089531212412        0.0006203758714018        0.1979110000000000
N        0.8676341145518689       -0.7122729086347966       -0.0027269943933144        0.1055000000000000
O       -0.0053278522757604        0.1540828537587739       -0.2910636633164384       -0.3034110000000000
O       -0.0056597885982934        0.1531983332601419        0.2910636633164384       -0.3034110000000000
N       -1.0855808819463975       -0.3239958925950796       -0.0019317960423281        0.1979110000000000
N       -0.8506401346842349       -0.8135918858519469        0.0036686151280029        0.1055000000000000

        RMSE         7.122644905E-01 kcal/mol
         MAE         4.786643835E-01 kcal/mol
     max. AE         4.314774547E+00 kcal/mol

Coordinates in bohr
s                   x[bohr]                   y[bohr]                   z[bohr]                      q[e]
local coordinates in angstrom
s                      x[a]                      y[a]                       z[a                      q[e]
x        0.5530589143472753       -0.0011723404917916        0.3321746744113625        0.1979110000000000
x       -0.4590776034283408        0.0051532725490233        0.4859878934694279        0.1055000000000000
x        0.0755631929696392        0.5500306087405349       -0.0580807959518097       -0.3034110000000000
x        0.0738101573415406       -0.5500306087405349       -0.0577427879538845       -0.3034110000000000
x       -0.5540780636665659        0.0036505654502434        0.3220871969442669        0.1979110000000000
x        0.4551714823392103       -0.0069326778516370        0.5079025369595911        0.1055000000000000
