6
s                      x[A]                      y[A]                      z[A]                      q[e]
N       -0.0006716943455960        1.0050177643807294       -0.3174717815642915        0.1979110000000000
N        0.0003185500789493        0.7367772987949077       -0.8411019116030759        0.1055000000000000
O       -0.2910511443427758        0.0001384041190823        0.1416519433770735       -0.3034110000000000
O        0.2910511443427758       -0.0009236092011003        0.1408876185484975       -0.3034110000000000
N       -0.0004749413987942       -1.0047525896513805       -0.3159899447426128        0.1979110000000000
N        0.0004143031462910       -0.7374311875845394       -0.8434571326832158        0.1055000000000000

        RMSE         6.771315263E-01 kcal/mol
         MAE         4.602687933E-01 kcal/mol
     max. AE         4.081123013E+00 kcal/mol

Coordinates in bohr
s                   x[bohr]                   y[bohr]                   z[bohr]                      q[e]
local coordinates in angstrom
s                      x[a]                      y[a]                       z[a                      q[e]
x        0.5539524490950498        0.0012693183531951        0.2733439973744680        0.1979110000000000
x       -0.5349403551790601       -0.0006019724064572        0.4978569283994148        0.1055000000000000
x        0.0411163001253954        0.5500069513089407       -0.0326933301466852       -0.3034110000000000
x        0.0387333997150563       -0.5500069513089407       -0.0333533905968579       -0.3034110000000000
x       -0.5558217428506396        0.0008975091693628        0.2711996238067513        0.1979110000000000
x        0.5376363340155876       -0.0007829194794056        0.5016075968414953        0.1055000000000000
