6
s                      x[A]                      y[A]                      z[A]                      q[e]
N        1.1042131367415318       -0.1338421179843683       -0.0003426278055283        0.1979110000000000
N        0.9456549389610730       -0.6205826711470245       -0.0003418137673225        0.1055000000000000
O       -0.0118911221446891        0.1587026383121037       -0.2910474658685001       -0.3034110000000000
O       -0.0130903531228870        0.1585331027391978        0.2910474658685001       -0.3034110000000000
N       -1.1222387045233322       -0.3692080158938423       -0.0004748022371194        0.1979110000000000
N       -0.9172695125258067       -0.8360757339027772        0.0015146256480904        0.1055000000000000

        RMSE         7.431617939E-01 kcal/mol
         MAE         5.016369776E-01 kcal/mol
     max. AE         4.345414490E+00 kcal/mol

Coordinates in bohr
s                   x[bohr]                   y[bohr]                   z[bohr]                      q[e]
local coordinates in angstrom
s                      x[a]                      y[a]                       z[a                      q[e]
x        0.5500000000000000        0.0006474727154151        0.3435975143297973        0.1979110000000000
x       -0.4056786661406284        0.0006459344061505        0.4936010692938975        0.1055000000000000
x        0.0864002319339421        0.5500000000000000       -0.0691657242241699       -0.3034110000000000
x        0.0850871222005940       -0.5500000000000000       -0.0710403249827745       -0.3034110000000000
x       -0.5500000000000000        0.0008972461919104        0.3261378284242319        0.1979110000000000
x        0.3892778996467247       -0.0028622276574849        0.5409743546378328        0.1055000000000000
