6
s                      x[A]                      y[A]                      z[A]                      q[e]
N        1.1068777209655369       -0.3923193092251450       -0.0004408961104167        0.1979110000000000
N        0.8584061896409485       -0.8701761109209556        0.0008094528149724        0.1055000000000000
O        0.0147278064377977        0.1468475812878888       -0.2910531580442116       -0.3034110000000000
O        0.0138713593823938        0.1464570857191190        0.2910531580442116       -0.3034110000000000
N       -1.0914945810817445       -0.1730780022392444       -0.0000991990824820        0.1979110000000000
N       -0.8859225204637080       -0.6729245205681644        0.0010875119346638        0.1055000000000000

        RMSE         7.347969781E-01 kcal/mol
         MAE         4.947607215E-01 kcal/mol
     max. AE         4.554865628E+00 kcal/mol

Coordinates in bohr
s                   x[bohr]                   y[bohr]                   z[bohr]                      q[e]
local coordinates in angstrom
s                      x[a]                      y[a]                       z[a                      q[e]
x        0.5533427999839660        0.0008331728984672        0.3201848861735925        0.1979110000000000
x       -0.4465621716190071       -0.0015296441317787        0.5101932848010620        0.1055000000000000
x        0.0764450578672040        0.5500107566531529       -0.0247953122820945       -0.3034110000000000
x        0.0748638245368056       -0.5500107566531529       -0.0256099428629568       -0.3034110000000000
x       -0.5485598288978508        0.0001874590977877        0.3397953573239647        0.1979110000000000
x        0.4652483606023452       -0.0020550997146813        0.4635850834929442        0.1055000000000000
