6
s                      x[A]                      y[A]                      z[A]                      q[e]
N       -0.0001070728750647        0.9101284731934522       -0.4471049843589719        0.1979110000000000
N       -0.0011947416794681        0.6459205212232830       -0.9707813408968324        0.1055000000000000
O       -0.2910919939743987        0.0013176740617030        0.0938475871794857       -0.3034110000000000
O        0.2910919939743987       -0.0001232563193191        0.0937726835120241       -0.3034110000000000
N        0.0003240583638106       -0.9094131124590722       -0.4485581333055931        0.1979110000000000
N       -0.0001718491196308       -0.6448869589274996       -0.9705056192735808        0.1055000000000000

        RMSE         7.367269855E-01 kcal/mol
         MAE         5.055155730E-01 kcal/mol
     max. AE         4.818591545E+00 kcal/mol

Coordinates in bohr
s                   x[bohr]                   y[bohr]                   z[bohr]                      q[e]
local coordinates in angstrom
s                      x[a]                      y[a]                       z[a                      q[e]
x        0.4937109615252666        0.0002023384093377        0.1737513766474876        0.1979110000000000
x       -0.5478456919809105        0.0022577345648642        0.5529067103816487        0.1055000000000000
x       -0.0576043165965530        0.5500841459250339        0.0649245673616861       -0.3034110000000000
x       -0.0596853991128228       -0.5500841459250339        0.0631628457572333       -0.3034110000000000
x       -0.4908452431791375       -0.0006123815562660        0.1748265178284782        0.1979110000000000
x        0.5489120522697704        0.0003247477710033        0.5511894013397978        0.1055000000000000
