6
s                      x[A]                      y[A]                      z[A]                      q[e]
N        1.0652202566036415       -0.2247871737856058       -0.0005247292056518        0.1979110000000000
N        0.8050086606146848       -0.7493830840063788        0.0000904931246904        0.1055000000000000
O       -0.0155853355111417        0.1319908897114225       -0.2910474658685001       -0.3034110000000000
O       -0.0171935761906722        0.1319077599503664        0.2910474658685001       -0.3034110000000000
N       -1.0648598964988876       -0.4186568401193053       -0.0003541225911984        0.1979110000000000
N       -0.8103788759649577       -0.9134010809318561        0.0009857509301981        0.1055000000000000

        RMSE         7.203169875E-01 kcal/mol
         MAE         4.891284630E-01 kcal/mol
     max. AE         4.299088918E+00 kcal/mol

Coordinates in bohr
s                   x[bohr]                   y[bohr]                   z[bohr]                      q[e]
local coordinates in angstrom
s                      x[a]                      y[a]                       z[a                      q[e]
x        0.5500000000000000        0.0009915944887110        0.3223661251267428        0.1979110000000000
x       -0.5496960559150711       -0.0001710072219017        0.4457589743498026        0.1055000000000000
x        0.0108798872192015        0.5500000000000000       -0.0420397164101346       -0.3034110000000000
x        0.0091021787437968       -0.5500000000000000       -0.0445096898303170       -0.3034110000000000
x       -0.5500000000000000        0.0006691947122024        0.2759770043013706        0.1979110000000000
x        0.4721170998846816       -0.0018627992859898        0.5222230048499715        0.1055000000000000
