6
s                      x[A]                      y[A]                      z[A]                      q[e]
N        1.0641003226992380       -0.3499397739466912       -0.0010577354288351        0.1979110000000000
N        0.8013498002457839       -0.8436044404810017        0.0014259344253814        0.1055000000000000
O        0.0076826390649461        0.1448883715820057       -0.2910372102357717       -0.3034110000000000
O        0.0060279955879433        0.1438819215818671        0.2910372102357717       -0.3034110000000000
N       -1.0588708348547462       -0.2453540462822054        0.0001324001152994        0.1979110000000000
N       -0.8160807590292631       -0.7509429818097587       -0.0001479603624182        0.1055000000000000

        RMSE         7.069895314E-01 kcal/mol
         MAE         4.778944703E-01 kcal/mol
     max. AE         4.387837269E+00 kcal/mol

Coordinates in bohr
s                   x[bohr]                   y[bohr]                   z[bohr]                      q[e]
local coordinates in angstrom
s                      x[a]                      y[a]                       z[a                      q[e]
x        0.5505627174416077        0.0019988302736920        0.3075419287270051        0.1979110000000000
x       -0.4905680956808283       -0.0026946255368330        0.4888451895785693        0.1055000000000000
x        0.0620155276437799        0.5499806196629002       -0.0298826650036972       -0.3034110000000000
x        0.0585939417851478       -0.5499806196629002       -0.0311815308396035       -0.3034110000000000
x       -0.5508257390156359       -0.0002501999568949        0.3192982993386977        0.1979110000000000
x        0.4987453284384173        0.0002796045623938        0.4667446029816347        0.1055000000000000
