6
s                      x[A]                      y[A]                      z[A]                      q[e]
N       -0.0016339541997733        1.0621491648388695       -0.3763679226270805        0.1979110000000000
N        0.0015615783814827        0.7949338228717125       -0.9113111621628381        0.1055000000000000
O       -0.2910474658685001        0.0009511688250144        0.1065778515748805       -0.3034110000000000
O        0.2910474658685001       -0.0008567197969203        0.1062196078250870       -0.3034110000000000
N       -0.0010807011180121       -1.0618311446617397       -0.3761031929931420        0.1979110000000000
N        0.0030073827061756       -0.7953183038184396       -0.9116312157556695        0.1055000000000000

        RMSE         7.416266116E-01 kcal/mol
         MAE         5.097726572E-01 kcal/mol
     max. AE         4.369599891E+00 kcal/mol

Coordinates in bohr
s                   x[bohr]                   y[bohr]                   z[bohr]                      q[e]
local coordinates in angstrom
s                      x[a]                      y[a]                       z[a                      q[e]
x        0.5500000000000000        0.0030877259391131        0.2470208117324882        0.1979110000000000
x       -0.5500000000000000       -0.0029509554644380        0.5056704020311928        0.1055000000000000
x       -0.0315700870788716        0.5500000000000000        0.0286186122230412       -0.3034110000000000
x       -0.0342761260244492       -0.5500000000000000        0.0264260006035056       -0.3034110000000000
x       -0.5500000000000000        0.0020422291365190        0.2462388700697349        0.1979110000000000
x        0.5500000000000000       -0.0056831296691100        0.5066157561074459        0.1055000000000000
