6
s                      x[A]                      y[A]                      z[A]                      q[e]
N        1.0779977964053853       -0.4099036827112985       -0.0004933507178282        0.1979110000000000
N        0.8309255348481045       -0.8963997149968311        0.0006184507879179        0.1055000000000000
O        0.0159357336703518        0.1369185990891380       -0.2910474658685001       -0.3034110000000000
O        0.0156048334815697        0.1364431343469284        0.2910474658685001       -0.3034110000000000
N       -1.0754218365372692       -0.2082790807435432       -0.0010190874810346        0.1979110000000000
N       -0.8295878676837040       -0.7263153348657728        0.0015772219828505        0.1055000000000000

        RMSE         7.250508540E-01 kcal/mol
         MAE         4.910512816E-01 kcal/mol
     max. AE         4.432301352E+00 kcal/mol

Coordinates in bohr
s                   x[bohr]                   y[bohr]                   z[bohr]                      q[e]
local coordinates in angstrom
s                      x[a]                      y[a]                       z[a                      q[e]
x        0.5500000000000000        0.0009322977404933        0.2890869159426329        0.1979110000000000
x       -0.4547262522597988       -0.0011687026112384        0.5208489063882249        0.1055000000000000
x        0.0548315766351875        0.5500000000000000       -0.0066067488799980       -0.3034110000000000
x        0.0537411977033881       -0.5500000000000000       -0.0065098664102545       -0.3034110000000000
x       -0.5500000000000000        0.0019257962370381        0.3303672695630940        0.1979110000000000
x        0.5271426921752492       -0.0029805175866390        0.4483295437670043        0.1055000000000000
