6
s                      x[A]                      y[A]                      z[A]                      q[e]
N        0.9249239722549968       -0.4197227958610794       -0.0006900068229745        0.1979110000000000
N        0.6720679611011902       -0.9513745154971504        0.0002011293830619        0.1055000000000000
O       -0.0060415840665243        0.0862821567630868       -0.2910410747711442       -0.3034110000000000
O       -0.0081426469813594        0.0866085338102356        0.2910410747711442       -0.3034110000000000
N       -0.9210175806629223       -0.5017478627418565        0.0009066335038721        0.1979110000000000
N       -0.6559717639449660       -1.0169257749761624       -0.0011655740667533        0.1055000000000000

        RMSE         7.553653978E-01 kcal/mol
         MAE         5.186952163E-01 kcal/mol
     max. AE         4.925252355E+00 kcal/mol

Coordinates in bohr
s                   x[bohr]                   y[bohr]                   z[bohr]                      q[e]
local coordinates in angstrom
s                      x[a]                      y[a]                       z[a                      q[e]
x        0.4975104163122523        0.0013039239201191        0.1727111366872123        0.1979110000000000
x       -0.5481054742194829       -0.0003800794497693        0.5526871162619500        0.1055000000000000
x       -0.0839660609190105        0.5499879225763564        0.0689058194966492       -0.3034110000000000
x       -0.0863604495425534       -0.5499879225763564        0.0656791118813089       -0.3034110000000000
x       -0.4827588383814145       -0.0017132890184826        0.1627389427667367        0.1979110000000000
x        0.5399126436232109        0.0022026157650998        0.5536327509398689        0.1055000000000000
