6
s                      x[A]                      y[A]                      z[A]                      q[e]
N        1.0435468234631486       -0.3749397461486506        0.0000188410850869        0.1979110000000000
N        0.7536305603460858       -0.8734341701629220       -0.0004702903198946        0.1055000000000000
O        0.0080481343849143        0.1338181457714560       -0.2910474658685001       -0.3034110000000000
O        0.0075832179147814        0.1329973645676774        0.2910474658685001       -0.3034110000000000
N       -1.0401882410884415       -0.2767939675520796       -0.0009382477793036        0.1979110000000000
N       -0.7622777905369275       -0.7940410335999714        0.0013412156531759        0.1055000000000000

        RMSE         6.991117829E-01 kcal/mol
         MAE         4.735118560E-01 kcal/mol
     max. AE         4.327670182E+00 kcal/mol

Coordinates in bohr
s                   x[bohr]                   y[bohr]                   z[bohr]                      q[e]
local coordinates in angstrom
s                      x[a]                      y[a]                       z[a                      q[e]
x        0.5500000000000000       -0.0000356044907207        0.2953071578305838        0.1979110000000000
x       -0.5245774724207523        0.0008887199040548        0.4765092225025069        0.1055000000000000
x        0.0377992018126656        0.5500000000000000       -0.0116584490096052       -0.3034110000000000
x        0.0360449170300265       -0.5500000000000000       -0.0113420278734126       -0.3034110000000000
x       -0.5500000000000000        0.0017730313407028        0.3090874105088889        0.1979110000000000
x        0.5499914959127565       -0.0025345302596795        0.4548473574497551        0.1055000000000000
