6
s                      x[A]                      y[A]                      z[A]                      q[e]
N        0.9403371702240071       -0.4862389403847370        0.0001948357594403        0.1979110000000000
N        0.6699256706364171       -1.0104631125459504       -0.0016070792915576        0.1055000000000000
O        0.0067515562569976        0.0910817053274326       -0.2910474658685001       -0.3034110000000000
O        0.0056812311157508        0.0913479653533196        0.2910474658685001       -0.3034110000000000
N       -0.9430643846722616       -0.4017929449516727       -0.0013020586284370        0.1979110000000000
N       -0.6902737034584326       -0.9409860926207954        0.0034144657334185        0.1055000000000000

        RMSE         7.477587168E-01 kcal/mol
         MAE         5.150300719E-01 kcal/mol
     max. AE         4.743190576E+00 kcal/mol

Coordinates in bohr
s                   x[bohr]                   y[bohr]                   z[bohr]                      q[e]
local coordinates in angstrom
s                      x[a]                      y[a]                       z[a                      q[e]
x        0.4980765095167497       -0.0003681862247877        0.1704894976468110        0.1979110000000000
x       -0.5500000000000000        0.0030369397229387        0.5500000000000000        0.1055000000000000
x       -0.0548346090311693        0.5500000000000000        0.0779735281155369       -0.3034110000000000
x       -0.0559765426505932       -0.5500000000000000        0.0762299245574623       -0.3034110000000000
x       -0.5124976619832390        0.0024605342070352        0.1791702871921290        0.1979110000000000
x        0.5500000000000000       -0.0064524051009216        0.5499990000000000        0.1055000000000000
