6
s                      x[A]                      y[A]                      z[A]                      q[e]
N        0.9304678635794380       -0.3561344034774469        0.0000640682639772        0.1979110000000000
N        0.6729793842669043       -0.9045040643528514       -0.0011429651567068        0.1055000000000000
O       -0.0045020472145107        0.1120111124149297       -0.2910995649907539       -0.3034110000000000
O       -0.0051083414604545        0.1118777324253674        0.2910995649907539       -0.3034110000000000
N       -0.9289061895548776       -0.4460245557446226        0.0001248664570065        0.1979110000000000
N       -0.6458365191715578       -0.9775134647167517       -0.0001672965008075        0.1055000000000000

        RMSE         7.080370087E-01 kcal/mol
         MAE         4.843538310E-01 kcal/mol
     max. AE         4.324399924E+00 kcal/mol

Coordinates in bohr
s                   x[bohr]                   y[bohr]                   z[bohr]                      q[e]
local coordinates in angstrom
s                      x[a]                      y[a]                       z[a                      q[e]
x        0.5327489561923358       -0.0001210714722504        0.1946868797604111        0.1979110000000000
x       -0.5555631956121942        0.0021598911171168        0.5499216496536974        0.1055000000000000
x       -0.0328205428372712        0.5500984530724367        0.0191760796351446       -0.3034110000000000
x       -0.0337889298698428       -0.5500984530724367        0.0185139210457237       -0.3034110000000000
x       -0.5156364441963888       -0.0002359634059985        0.1895073518062418        0.1979110000000000
x        0.5648700240799371        0.0003161445682736        0.5464466418197844        0.1055000000000000
