6
s                      x[A]                      y[A]                      z[A]                      q[e]
N        0.8821007860533040       -0.4073747924410313        0.0004777416205457        0.1979110000000000
N        0.6267096011660496       -0.9345707528231175        0.0009941902843126        0.1055000000000000
O       -0.0001444195988236        0.0933788849858991       -0.2913215176388811       -0.3034110000000000
O        0.0004149996490515        0.0939920678325452        0.2913215176388811       -0.3034110000000000
N       -0.8697216393833459       -0.5056361864643999        0.0005932959272542        0.1979110000000000
N       -0.5937583716147377       -0.9883649505559132       -0.0013883998065711        0.1055000000000000

        RMSE         7.296008324E-01 kcal/mol
         MAE         4.988328242E-01 kcal/mol
     max. AE         4.969111989E+00 kcal/mol

Coordinates in bohr
s                   x[bohr]                   y[bohr]                   z[bohr]                      q[e]
local coordinates in angstrom
s                      x[a]                      y[a]                       z[a                      q[e]
x        0.4953871669613363       -0.0009028008215637        0.1787707031921855        0.1979110000000000
x       -0.5412620488398261       -0.0018787473539419        0.5671080049742159        0.1055000000000000
x       -0.0588450834345622        0.5505178827902171        0.0613620631488061       -0.3034110000000000
x       -0.0572803989878139       -0.5505178827902171        0.0612524134801333       -0.3034110000000000
x       -0.4477749613569131       -0.0011211668138600        0.1831917736303694        0.1979110000000000
x        0.5432651000851365        0.0026236953870580        0.5324071303384699        0.1055000000000000
