6
s                      x[A]                      y[A]                      z[A]                      q[e]
N        1.1162219407879885       -0.3943866745740667       -0.0009483041155675        0.1979110000000000
N        0.8422676462404831       -0.8685868151337529        0.0014424031545354        0.1055000000000000
O        0.0196218548551829        0.1435225025221729       -0.2911249074171002       -0.3034110000000000
O        0.0178745216979917        0.1421869722706261        0.2911249074171002       -0.3034110000000000
N       -1.0928888269610522       -0.1852015336895622       -0.0006565164047858        0.1979110000000000
N       -0.8791326891786538       -0.6670770522727001        0.0014152531294930        0.1055000000000000

        RMSE         7.443414102E-01 kcal/mol
         MAE         4.981176457E-01 kcal/mol
     max. AE         4.695921806E+00 kcal/mol

Coordinates in bohr
s                   x[bohr]                   y[bohr]                   z[bohr]                      q[e]
local coordinates in angstrom
s                      x[a]                      y[a]                       z[a                      q[e]
x        0.5612017674957315        0.0017920350620670        0.3364730689841053        0.1979110000000000
x       -0.4630765094721028       -0.0027257469245683        0.4843787594681999        0.1055000000000000
x        0.0772327648071496        0.5501463433175857       -0.0136420683251686       -0.3034110000000000
x        0.0732068703421191       -0.5501463433175857       -0.0146739359936419       -0.3034110000000000
x       -0.5298741065146260        0.0012406362019153        0.3533105639639871        0.1979110000000000
x        0.4618961872729415       -0.0026744408129389        0.4469868759715609        0.1055000000000000
