6
s                      x[A]                      y[A]                      z[A]                      q[e]
N        1.0512406475917182       -0.2385843670973181       -0.0016378442857411        0.1979110000000000
N        0.7931334682206950       -0.7664965697855285        0.0017126909530057        0.1055000000000000
O       -0.0140246919622986        0.1281746409118202       -0.2910474658685001       -0.3034110000000000
O       -0.0160068566430990        0.1265675710876312        0.2910474658685001       -0.3034110000000000
N       -1.0567959661675217       -0.4319492011184149       -0.0003236996727793        0.1979110000000000
N       -0.7754665805745831       -0.9302262734113153        0.0015791717149261        0.1055000000000000

        RMSE         7.158301203E-01 kcal/mol
         MAE         4.867491849E-01 kcal/mol
     max. AE         4.267153720E+00 kcal/mol

Coordinates in bohr
s                   x[bohr]                   y[bohr]                   z[bohr]                      q[e]
local coordinates in angstrom
s                      x[a]                      y[a]                       z[a                      q[e]
x        0.5500000000000000        0.0030950771361967        0.3064312570821487        0.1979110000000000
x       -0.5500000000000000       -0.0032365168387302        0.4585054948204560        0.1055000000000000
x        0.0015460281046337        0.5500000000000000       -0.0329803645801487       -0.3034110000000000
x       -0.0030644731232990       -0.5500000000000000       -0.0343934475874131       -0.3034110000000000
x       -0.5500000000000000        0.0006117037284533        0.2761115574511052        0.1979110000000000
x        0.5070039829195785       -0.0029842020462799        0.5041532105044968        0.1055000000000000
