6
s                      x[A]                      y[A]                      z[A]                      q[e]
N        0.0006796714779923        1.1118646498129419       -0.1969182151132549        0.1979110000000000
N       -0.0015642995804783        0.9374719747685127       -0.6417784729878698        0.1055000000000000
O       -0.2910097685898461       -0.0001330928059984        0.1797745888639893       -0.3034110000000000
O        0.2910097685898461       -0.0008290400939215        0.1785362081170516       -0.3034110000000000
N       -0.0025525978198440       -1.1102313686732335       -0.1967786158489158        0.1979110000000000
N        0.0041502807417548       -0.9396596568590749       -0.6425696963570824        0.1055000000000000

        RMSE         7.184695444E-01 kcal/mol
         MAE         4.790960916E-01 kcal/mol
     max. AE         4.280871651E+00 kcal/mol

Coordinates in bohr
s                   x[bohr]                   y[bohr]                   z[bohr]                      q[e]
local coordinates in angstrom
s                      x[a]                      y[a]                       z[a                      q[e]
x        0.5402935035212977       -0.0012843929486905        0.3826416630454332        0.1979110000000000
x       -0.3552006535410328        0.0029560977852725        0.4984534103241458        0.1055000000000000
x        0.1526985103919287        0.5499287624676690       -0.0841469569763831       -0.3034110000000000
x        0.1500142100603625       -0.5499287624676690       -0.0841732020189738       -0.3034110000000000
x       -0.5390390015936646        0.0048237107879459        0.3798093466430146        0.1979110000000000
x        0.3545211699838546       -0.0078428939456785        0.5027967799578619        0.1055000000000000
