6
s                      x[A]                      y[A]                      z[A]                      q[e]
N        1.1426261123803103       -0.1857008996856522       -0.0004540454223170        0.1979110000000000
N        0.9884273953898461       -0.6599232709321446        0.0011910284329182        0.1055000000000000
O       -0.0051067440642155        0.1569649212018467       -0.2910716991135567       -0.3034110000000000
O       -0.0060188433325883        0.1568035884839855        0.2910716991135567       -0.3034110000000000
N       -1.1528280842958485       -0.3070932103167258       -0.0007361711874075        0.1979110000000000
N       -0.9758076592648587       -0.7687110100709861        0.0005888939997865        0.1055000000000000

        RMSE         7.659229775E-01 kcal/mol
         MAE         5.179845680E-01 kcal/mol
     max. AE         4.544374540E+00 kcal/mol

Coordinates in bohr
s                   x[bohr]                   y[bohr]                   z[bohr]                      q[e]
local coordinates in angstrom
s                      x[a]                      y[a]                       z[a                      q[e]
x        0.5482070769617167        0.0008580214966969        0.3452811744482460        0.1979110000000000
x       -0.3788847654514029       -0.0022507175458486        0.5140897750861768        0.1055000000000000
x        0.0888631308325785        0.5500457941962882       -0.0588757821224135       -0.3034110000000000
x        0.0877767795254840       -0.5500457941962882       -0.0602482426020288       -0.3034110000000000
x       -0.5486191341224185        0.0013911619256533        0.3380632339139993        0.1979110000000000
x        0.3644256788920757       -0.0011128483765219        0.5360900808445876        0.1055000000000000
