6
s                      x[A]                      y[A]                      z[A]                      q[e]
N       -0.0005469492400308        1.0051444963382263       -0.3175978668848691        0.1979110000000000
N        0.0002899461330280        0.7365401484163422       -0.8411466255632022        0.1055000000000000
O       -0.2910511443427758        0.0004400080785998        0.1412705685747033       -0.3034110000000000
O        0.2910511443427758       -0.0005727285640331        0.1405623149633070       -0.3034110000000000
N       -0.0004157525736481       -1.0053080163967369       -0.3175274244011341        0.1979110000000000
N        0.0005161311690403       -0.7350948803981774       -0.8422202025578736        0.1055000000000000

        RMSE         6.775339994E-01 kcal/mol
         MAE         4.606005832E-01 kcal/mol
     max. AE         4.090034876E+00 kcal/mol

Coordinates in bohr
s                   x[bohr]                   y[bohr]                   z[bohr]                      q[e]
local coordinates in angstrom
s                      x[a]                      y[a]                       z[a                      q[e]
x        0.5539166766693597        0.0010335842681855        0.2736799232570775        0.1979110000000000
x       -0.5352868896598011       -0.0005479187825586        0.4975604635874333        0.1055000000000000
x        0.0409113771079319        0.5500069513089407       -0.0317976471546899       -0.3034110000000000
x        0.0386694010358042       -0.5500069513089407       -0.0324514690482829       -0.3034110000000000
x       -0.5542139767285335        0.0007856585001491        0.2738374631990155        0.1979110000000000
x        0.5385789655920235       -0.0009753465542985        0.4967017619565013        0.1055000000000000
