6
s                      x[A]                      y[A]                      z[A]                      q[e]
N        0.0003296362908087        0.9805163482838433       -0.3877325265095579        0.1979110000000000
N       -0.0008657718457456        0.7166656250765571       -0.9302049516276736        0.1055000000000000
O       -0.2916857984732799        0.0032669210647393        0.1112093671766051       -0.3034110000000000
O        0.2916857984732799        0.0032392032418455        0.1115218413717177       -0.3034110000000000
N        0.0000278529567802       -0.9789884340434892       -0.3903186434961083        0.1979110000000000
N       -0.0004663859904281       -0.7139554666939675       -0.9290803208704888        0.1055000000000000

        RMSE         7.156874663E-01 kcal/mol
         MAE         4.874981487E-01 kcal/mol
     max. AE         4.211987182E+00 kcal/mol

Coordinates in bohr
s                   x[bohr]                   y[bohr]                   z[bohr]                      q[e]
local coordinates in angstrom
s                      x[a]                      y[a]                       z[a                      q[e]
x        0.5398427656209606       -0.0006229223106402        0.2125969995581727        0.1979110000000000
x       -0.5512390147107453        0.0016360716755912        0.5427908171295712        0.1055000000000000
x       -0.0222262826805490        0.5512062737999841        0.0289743307053385       -0.3034110000000000
x       -0.0218284187390054       -0.5512062737999841        0.0285348684643054       -0.3034110000000000
x       -0.5342946872752918       -0.0000526344600988        0.2137965166298272        0.1979110000000000
x        0.5531571186861584        0.0008813417906595        0.5375882348334926        0.1055000000000000
