6
s                      x[A]                      y[A]                      z[A]                      q[e]
N       -0.0002097121443474        1.0806295527018277       -0.3077970323212501        0.1979110000000000
N       -0.0008879118112704        0.8374485299478328       -0.8074575802777192        0.1055000000000000
O       -0.2910474658685001        0.0014623788557331        0.1368362327846552       -0.3034110000000000
O        0.2910474658685001       -0.0005157082280232        0.1378666197247600       -0.3034110000000000
N        0.0015201349573673       -1.0803033496975682       -0.3075619837716230        0.1979110000000000
N       -0.0029255254476721       -0.8351888030762599       -0.8098723140555536        0.1055000000000000

        RMSE         7.230999464E-01 kcal/mol
         MAE         4.905655487E-01 kcal/mol
     max. AE         4.457621577E+00 kcal/mol

Coordinates in bohr
s                   x[bohr]                   y[bohr]                   z[bohr]                      q[e]
local coordinates in angstrom
s                      x[a]                      y[a]                       z[a                      q[e]
x        0.5500000000000000        0.0003962985179990        0.3084495120450751        0.1979110000000000
x       -0.4847169900107225        0.0016779101468603        0.4876065940324106        0.1055000000000000
x        0.0394992902688268        0.5500000000000000       -0.0250553983319590       -0.3034110000000000
x        0.0388937770104610       -0.5500000000000000       -0.0292264542735450       -0.3034110000000000
x       -0.5500000000000000       -0.0028726387431586        0.3076897194127989        0.1979110000000000
x        0.4909156015023523        0.0055284418691577        0.4868097001234826        0.1055000000000000
