6
s                      x[A]                      y[A]                      z[A]                      q[e]
N        0.0004701806769166        1.1214976340381346       -0.2512134902114309        0.1979110000000000
N       -0.0014418397513952        0.9320957570706364       -0.7285161338829319        0.1055000000000000
O       -0.2910996646677481        0.0017212971776185        0.1577522844435163       -0.3034110000000000
O        0.2910996646677481        0.0010405265097466        0.1569348990091674       -0.3034110000000000
N       -0.0009119935003905       -1.1224552618264456       -0.2520446118316208        0.1979110000000000
N        0.0017273896995219       -0.9288508121818029       -0.7289670238018220        0.1055000000000000

        RMSE         7.421940885E-01 kcal/mol
         MAE         4.989635620E-01 kcal/mol
     max. AE         4.582711468E+00 kcal/mol

Coordinates in bohr
s                   x[bohr]                   y[bohr]                   z[bohr]                      q[e]
local coordinates in angstrom
s                      x[a]                      y[a]                       z[a                      q[e]
x        0.5501752501240844       -0.0008885127088547        0.3399243854400993        0.1979110000000000
x       -0.4050849008663135        0.0027246822469351        0.5106150058927597        0.1055000000000000
x        0.0928873262059824        0.5500986414346567       -0.0537102434977896       -0.3034110000000000
x        0.0908967617460803       -0.5500986414346567       -0.0539905193791128       -0.3034110000000000
x       -0.5497929909815866        0.0017234179439356        0.3422898634962621        0.1979110000000000
x        0.4090383039228982       -0.0032642934440332        0.5058506872046564        0.1055000000000000
