6
s                      x[A]                      y[A]                      z[A]                      q[e]
N        1.1134054550069457       -0.2337590686751636       -0.0010631025145733        0.1979110000000000
N        0.9179889298455175       -0.7300797511781557        0.0005379568043110        0.1055000000000000
O       -0.0051587373475865        0.1416615345338202       -0.2910474658685001       -0.3034110000000000
O       -0.0072373616484463        0.1420988646058034        0.2910474658685001       -0.3034110000000000
N       -1.1200930146312578       -0.3433019014630284        0.0007852517601760        0.1979110000000000
N       -0.9039560229871568       -0.8291632603051599       -0.0002263677729422        0.1055000000000000

        RMSE         7.509994045E-01 kcal/mol
         MAE         5.103505841E-01 kcal/mol
     max. AE         4.505588944E+00 kcal/mol

Coordinates in bohr
s                   x[bohr]                   y[bohr]                   z[bohr]                      q[e]
local coordinates in angstrom
s                      x[a]                      y[a]                       z[a                      q[e]
x        0.5500000000000000        0.0020089725958292        0.3196959875710024        0.1979110000000000
x       -0.4423443083652879       -0.0010165910274743        0.4966103825550926        0.1055000000000000
x        0.0466784891582288        0.5500000000000000       -0.0401618800197888       -0.3034110000000000
x        0.0453241846941005       -0.5500000000000000       -0.0439405408191590       -0.3034110000000000
x       -0.5500000000000000       -0.0014839107662663        0.3090995903273296        0.1979110000000000
x        0.4330500830604808        0.0004277730944906        0.5174876947946548        0.1055000000000000
