6
s                      x[A]                      y[A]                      z[A]                      q[e]
N        0.0006273274251568        0.9297714861595825       -0.4308957995993276        0.1979110000000000
N       -0.0006124741073526        0.6680560902757022       -0.9648082508280063        0.1055000000000000
O       -0.2916820761384812        0.0045252061701334        0.0964836696348680       -0.3034110000000000
O        0.2916820761384812        0.0048580871586934        0.0971232228820852       -0.3034110000000000
N        0.0000510023578787       -0.9272382454444756       -0.4377423078918524        0.1979110000000000
N       -0.0003197358207858       -0.6613864188890249       -0.9595264915654136        0.1055000000000000

        RMSE         7.337958948E-01 kcal/mol
         MAE         5.000847813E-01 kcal/mol
     max. AE         4.731882519E+00 kcal/mol

Coordinates in bohr
s                   x[bohr]                   y[bohr]                   z[bohr]                      q[e]
local coordinates in angstrom
s                      x[a]                      y[a]                       z[a                      q[e]
x        0.5099898178768854       -0.0011854770245350        0.1828724616302679        0.1979110000000000
x       -0.5481415128333538        0.0011574083218306        0.5609394876109945        0.1055000000000000
x       -0.0478611734984042        0.5511992396066674        0.0614342580839065       -0.3034110000000000
x       -0.0465674314436910       -0.5511992396066674        0.0610069325846894       -0.3034110000000000
x       -0.4975353440910339       -0.0000963804881433        0.1888050170327915        0.1979110000000000
x        0.5502119349227996        0.0006042131337836        0.5449960760652175        0.1055000000000000
