6
s                      x[A]                      y[A]                      z[A]                      q[e]
N        1.1248060485568694       -0.3432801517470765        0.0002612585520475        0.1979110000000000
N        0.9011378366158446       -0.8330309133616352       -0.0017342452727900        0.1055000000000000
O        0.0084546068011157        0.1410491880811181       -0.2911243307468391       -0.3034110000000000
O        0.0081275181223134        0.1406455378317225        0.2911243307468391       -0.3034110000000000
N       -1.1160327801638374       -0.2335645955278451       -0.0010057227880269        0.1979110000000000
N       -0.9130578045899638       -0.7371071466854551        0.0021982359227851        0.1055000000000000

        RMSE         7.493778804E-01 kcal/mol
         MAE         5.040981364E-01 kcal/mol
     max. AE         4.674782691E+00 kcal/mol

Coordinates in bohr
s                   x[bohr]                   y[bohr]                   z[bohr]                      q[e]
local coordinates in angstrom
s                      x[a]                      y[a]                       z[a                      q[e]
x        0.5552620623025177       -0.0004937071113034        0.3162853638623346        0.1979110000000000
x       -0.4420933257470097        0.0032772485999431        0.5174673882029310        0.1055000000000000
x        0.0576633627433694        0.5501452535687275       -0.0220826727208987       -0.3034110000000000
x        0.0566829842045991       -0.5501452535687275       -0.0221352238736472       -0.3034110000000000
x       -0.5529145269383662        0.0019005406275028        0.3237322073182440        0.1979110000000000
x        0.4585378586471052       -0.0041540638532069        0.4956319036245986        0.1055000000000000
