6
s                      x[A]                      y[A]                      z[A]                      q[e]
N        1.0734286932437669       -0.2060562013570831        0.0007816010861701        0.1979110000000000
N        0.8824708396884747       -0.7132859377655415       -0.0025281556103209        0.1055000000000000
O       -0.0052529090282058        0.1578481527042777       -0.2912404366476332       -0.3034110000000000
O       -0.0056600510424260        0.1572772106255220        0.2912404366476332       -0.3034110000000000
N       -1.0834946710394506       -0.3162509462128220       -0.0015558938447206        0.1979110000000000
N       -0.8612181620117160       -0.8174342461926316        0.0025251493617136        0.1055000000000000

        RMSE         7.065488175E-01 kcal/mol
         MAE         4.745432555E-01 kcal/mol
     max. AE         4.202411241E+00 kcal/mol

Coordinates in bohr
s                   x[bohr]                   y[bohr]                   z[bohr]                      q[e]
local coordinates in angstrom
s                      x[a]                      y[a]                       z[a                      q[e]
x        0.5598139322214593       -0.0014770119922218        0.3180469844005529        0.1979110000000000
x       -0.4460676915159638        0.0047775217060462        0.5108977258978484        0.1055000000000000
x        0.0817051080634883        0.5503646619227780       -0.0616760180971312       -0.3034110000000000
x        0.0803831975820231       -0.5503646619227780       -0.0617686800126478       -0.3034110000000000
x       -0.5635876709339982        0.0029402132468075        0.3102839314492485        0.1979110000000000
x        0.4492723480993845       -0.0047718407195134        0.5283354896437231        0.1055000000000000
