6
s                      x[A]                      y[A]                      z[A]                      q[e]
N        0.9602547984364810       -0.3869837763435887       -0.0004997482969129        0.1979110000000000
N        0.7028628908261877       -0.9311316365875300       -0.0001676041088806        0.1055000000000000
O       -0.0071772911320906        0.0961705187596245       -0.2910390451135774       -0.3034110000000000
O       -0.0090054900056702        0.0963574184825364        0.2910390451135774       -0.3034110000000000
N       -0.9594000333230697       -0.4702073554347848        0.0008669779965147        0.1979110000000000
N       -0.6881563900907339       -1.0000766962221039       -0.0012763188658162        0.1055000000000000

        RMSE         7.397546201E-01 kcal/mol
         MAE         5.096912605E-01 kcal/mol
     max. AE         4.457546131E+00 kcal/mol

Coordinates in bohr
s                   x[bohr]                   y[bohr]                   z[bohr]                      q[e]
local coordinates in angstrom
s                      x[a]                      y[a]                       z[a                      q[e]
x        0.5218751618103852        0.0009443874128294        0.1895433034387679        0.1979110000000000
x       -0.5600187720219765        0.0003167258632857        0.5409289690251171        0.1055000000000000
x       -0.0677261316595832        0.5499840870794266        0.0452011159336507       -0.3034110000000000
x       -0.0698388445016462       -0.5499840870794266        0.0424448872031462       -0.3034110000000000
x       -0.5137063764404957       -0.0016383509702109        0.1781970082483895        0.1979110000000000
x        0.5490301626405198        0.0024118931051476        0.5469014856971626        0.1055000000000000
