6
s                      x[A]                      y[A]                      z[A]                      q[e]
N        0.0001848272736014        1.0116268266874111       -0.3614286007730628        0.1979110000000000
N       -0.0010374282098331        0.7520149295598370       -0.9014228538956403        0.1055000000000000
O       -0.2916904250055969        0.0029954374713947        0.1203831933882829       -0.3034110000000000
O        0.2916904250055969        0.0026847321298775        0.1204667600464673       -0.3034110000000000
N       -0.0001513387611154       -1.0102904491015861       -0.3619992746748992        0.1979110000000000
N       -0.0002113465739973       -0.7515497152114133       -0.9022806067834147        0.1055000000000000

        RMSE         7.112482846E-01 kcal/mol
         MAE         4.829634174E-01 kcal/mol
     max. AE         4.273300330E+00 kcal/mol

Coordinates in bohr
s                   x[bohr]                   y[bohr]                   z[bohr]                      q[e]
local coordinates in angstrom
s                      x[a]                      y[a]                       z[a                      q[e]
x        0.5520305085401560       -0.0003492729276218        0.2360988087211808        0.1979110000000000
x       -0.5411324151862118        0.0019604551914085        0.5310208213259102        0.1055000000000000
x       -0.0032858252575352        0.5512150166789738        0.0103085980774011       -0.3034110000000000
x       -0.0035496976108789       -0.5512150166789738        0.0097608277953896       -0.3034110000000000
x       -0.5495645386056367        0.0002859888106741        0.2348906866041034        0.1979110000000000
x        0.5429340539080840        0.0003993871424086        0.5314136810202399        0.1055000000000000
