6
s                      x[A]                      y[A]                      z[A]                      q[e]
N        1.1408429158205120       -0.3177999791879391        0.0009878960159711        0.1979110000000000
N        0.9549821919728686       -0.7901517318117846       -0.0023652322574321        0.1055000000000000
O        0.0063692580055949        0.1520645000429909       -0.2910474658685001       -0.3034110000000000
O        0.0060376754703269        0.1536417465304177        0.2910474658685001       -0.3034110000000000
N       -1.1303172674978337       -0.1997072159581661        0.0004231370680879        0.1979110000000000
N       -0.9699233355030743       -0.6837646178715000       -0.0009618704673443        0.1055000000000000

        RMSE         7.616473158E-01 kcal/mol
         MAE         5.165267175E-01 kcal/mol
     max. AE         4.637114611E+00 kcal/mol

Coordinates in bohr
s                   x[bohr]                   y[bohr]                   z[bohr]                      q[e]
local coordinates in angstrom
s                      x[a]                      y[a]                       z[a                      q[e]
x        0.5500000000000000       -0.0018668529106164        0.3248179995920198        0.1979110000000000
x       -0.3859633492291291        0.0044696411896450        0.5348050333832822        0.1055000000000000
x        0.0823817980287681        0.5500000000000000       -0.0412870736402268       -0.3034110000000000
x        0.0844976798195808       -0.5500000000000000       -0.0434778345026056       -0.3034110000000000
x       -0.5500000000000000       -0.0007996131722153        0.3298852712076462        0.1979110000000000
x        0.3956388691496480        0.0018176717514469        0.5153007665080352        0.1055000000000000
