6
s                      x[A]                      y[A]                      z[A]                      q[e]
N        0.0000791693203821        1.1860848459568658       -0.2213518003185466        0.1979110000000000
N       -0.0001423570859430        1.0619966031189261       -0.6767522213960466        0.1055000000000000
O       -0.2910352272067458        0.0005189670127398        0.1625991870882068       -0.3034110000000000
O        0.2910352272067458       -0.0004754658539434        0.1629064008454123       -0.3034110000000000
N       -0.0010855808287545       -1.1854783204513075       -0.2208925894074564        0.1979110000000000
N        0.0022288552709590       -1.0614596350795977       -0.6771454742863993        0.1055000000000000

        RMSE         7.967789828E-01 kcal/mol
         MAE         5.418369974E-01 kcal/mol
     max. AE         4.686580248E+00 kcal/mol

Coordinates in bohr
s                   x[bohr]                   y[bohr]                   z[bohr]                      q[e]
local coordinates in angstrom
s                      x[a]                      y[a]                       z[a                      q[e]
x        0.5513897209079914       -0.0001496083330608        0.3475899835684686        0.1979110000000000
x       -0.3158030907416105        0.0002690159044505        0.5563122939092864        0.1055000000000000
x        0.1088962957292097        0.5499768722811424       -0.0586854691800909       -0.3034110000000000
x        0.1085005624399855       -0.5499768722811424       -0.0606120847687635       -0.3034110000000000
x       -0.5515986157447514        0.0020514504533935        0.3461676231927413        0.1979110000000000
x        0.3169429237541408       -0.0042119260353957        0.5557805985372397        0.1055000000000000
