6
s                      x[A]                      y[A]                      z[A]                      q[e]
N       -0.0003998237304166        0.8644856390754989       -0.4394704067464311        0.1979110000000000
N        0.0016762872750007        0.5909608340712188       -0.9496203442853011        0.1055000000000000
O       -0.2910474658685001        0.0007484279140883        0.1030439033947236       -0.3034110000000000
O        0.2910474658685001        0.0008999994740440        0.1032779526437432       -0.3034110000000000
N       -0.0000603600872853       -0.8616579636914889       -0.4409648265614781        0.1979110000000000
N       -0.0016135442676227       -0.5909604784408008       -0.9496199524236850        0.1055000000000000

        RMSE         7.115956221E-01 kcal/mol
         MAE         4.839837622E-01 kcal/mol
     max. AE         4.791712169E+00 kcal/mol

Coordinates in bohr
s                   x[bohr]                   y[bohr]                   z[bohr]                      q[e]
local coordinates in angstrom
s                      x[a]                      y[a]                       z[a                      q[e]
x        0.4806404052518918        0.0007555573489462        0.1834857675799277        0.1979110000000000
x       -0.5500000000000000       -0.0031677238573413        0.5500000000000000        0.1055000000000000
x       -0.0390597606234186        0.5500000000000000        0.0451436323163744       -0.3034110000000000
x       -0.0385504192587021       -0.5500000000000000        0.0450086051424565       -0.3034110000000000
x       -0.4747855780820300        0.0001140640338779        0.1819859145837820        0.1979110000000000
x        0.5500000000000000        0.0030491567571093        0.5499990000000000        0.1055000000000000
