6
s                      x[A]                      y[A]                      z[A]                      q[e]
N        0.9946343450242098       -0.4653812870277183       -0.0005289646549003        0.1979110000000000
N        0.7048788289249251       -0.9906216800892068        0.0006465140862666        0.1055000000000000
O        0.0136682619941540        0.1162290450947906       -0.2910304168910791       -0.3034110000000000
O        0.0131950455366536        0.1162946880383696        0.2910304168910791       -0.3034110000000000
N       -0.9906758233089956       -0.2856823384360747        0.0000679307301994        0.1979110000000000
N       -0.7392685915344926       -0.8385754023341371       -0.0006087650483333        0.1055000000000000

        RMSE         7.099482740E-01 kcal/mol
         MAE         4.894097804E-01 kcal/mol
     max. AE         4.117774347E+00 kcal/mol

Coordinates in bohr
s                   x[bohr]                   y[bohr]                   z[bohr]                      q[e]
local coordinates in angstrom
s                      x[a]                      y[a]                       z[a                      q[e]
x        0.5404416659266644        0.0009995983278088        0.2141453151562018        0.1979110000000000
x       -0.5479519422287922       -0.0012217345592944        0.5309987072032527        0.1055000000000000
x        0.0026092181637978        0.5499677821019553        0.0339820563413014       -0.3034110000000000
x        0.0020631558991226       -0.5499677821019553        0.0332631085821049       -0.3034110000000000
x       -0.5513962012410047       -0.0001283704755792        0.2346373500804475        0.1979110000000000
x        0.5623531279288727        0.0011503992161011        0.5119731825143390        0.1055000000000000
