6
s                      x[A]                      y[A]                      z[A]                      q[e]
N        1.1269258330183238       -0.2826567013771692        0.0002415357951674        0.1979110000000000
N        0.9337776421345283       -0.7312170300299611        0.0002290626653256        0.1055000000000000
O        0.0080079622463084        0.1706186811051655       -0.2910403915576619       -0.3034110000000000
O        0.0065759132173252        0.1696908742503582        0.2910403915576619       -0.3034110000000000
N       -1.1174855204136309       -0.1573491220496923       -0.0004354799920481        0.1979110000000000
N       -0.9445787176386140       -0.6127195118854206        0.0014359373505730        0.1055000000000000

        RMSE         7.349708292E-01 kcal/mol
         MAE         4.936933003E-01 kcal/mol
     max. AE         4.553678952E+00 kcal/mol

Coordinates in bohr
s                   x[bohr]                   y[bohr]                   z[bohr]                      q[e]
local coordinates in angstrom
s                      x[a]                      y[a]                       z[a                      q[e]
x        0.5439598969778672       -0.0004564365023612        0.3655508998945152        0.1979110000000000
x       -0.3671782003602857       -0.0004328657030328        0.5124226006955723        0.1055000000000000
x        0.1321061344606278        0.5499866314899897       -0.0660768898760580       -0.3034110000000000
x        0.1291744726649995       -0.5499866314899897       -0.0674195870478798       -0.3034110000000000
x       -0.5409359355826382        0.0008229379180875        0.3775709042492963        0.1979110000000000
x        0.3739687930037690       -0.0027135283258986        0.4786473359054071        0.1055000000000000
