6
s                      x[A]                      y[A]                      z[A]                      q[e]
N        0.8811914506111237       -0.4087247384044511        0.0002565246400728        0.1979110000000000
N        0.6249662493837586       -0.9313763673421320       -0.0003924526379665        0.1055000000000000
O       -0.0007266830732992        0.0931873362314387       -0.2910834762501027       -0.3034110000000000
O       -0.0008663281497919        0.0932712524066819        0.2910834762501027       -0.3034110000000000
N       -0.8713374501370396       -0.5057928362907305        0.0000185015128833        0.1979110000000000
N       -0.5878967829633683       -0.9897651524684067        0.0003745878033165        0.1055000000000000

        RMSE         7.286546938E-01 kcal/mol
         MAE         5.002383705E-01 kcal/mol
     max. AE         4.920410109E+00 kcal/mol

Coordinates in bohr
s                   x[bohr]                   y[bohr]                   z[bohr]                      q[e]
local coordinates in angstrom
s                      x[a]                      y[a]                       z[a                      q[e]
x        0.4923833235948223       -0.0004847613141692        0.1794321794604912        0.1979110000000000
x       -0.5394829851229588        0.0007416280029702        0.5604651231042226        0.1055000000000000
x       -0.0598913844132767        0.5500680497589023        0.0608650915846738       -0.3034110000000000
x       -0.0599730421618005       -0.5500680497589023        0.0605682454729504       -0.3034110000000000
x       -0.4498916741022185       -0.0000349627922560        0.1854122809363616        0.1979110000000000
x        0.5533760701073334       -0.0007078683582051        0.5271664216270437        0.1055000000000000
