6
s                      x[A]                      y[A]                      z[A]                      q[e]
N        0.9447820245209080       -0.4234218225766559       -0.0010593056046683        0.1979110000000000
N        0.6709645368029000       -0.9648523960293585        0.0006371576529346        0.1055000000000000
O        0.0068847081067305        0.1226672816277825       -0.2910474658685001       -0.3034110000000000
O        0.0056412465297791        0.1214651477024217        0.2910474658685001       -0.3034110000000000
N       -0.9447281882286095       -0.3338623502016945       -0.0009587991898790        0.1979110000000000
N       -0.6939473740884216       -0.8921162463460748        0.0021230810573443        0.1055000000000000

        RMSE         7.044782943E-01 kcal/mol
         MAE         4.838907212E-01 kcal/mol
     max. AE         4.137999583E+00 kcal/mol

Coordinates in bohr
s                   x[bohr]                   y[bohr]                   z[bohr]                      q[e]
local coordinates in angstrom
s                      x[a]                      y[a]                       z[a                      q[e]
x        0.5370003837776615        0.0020017974759855        0.1852787938255599        0.1979110000000000
x       -0.5500000000000000       -0.0012040534627858        0.5500000000000000        0.1055000000000000
x        0.0004764860128079        0.5500000000000000        0.0180381384448515       -0.3034110000000000
x       -0.0027917035894436       -0.5500000000000000        0.0180043169158478       -0.3034110000000000
x       -0.5500000000000000        0.0018118678781821        0.1929261613865182        0.1979110000000000
x        0.5500000000000000       -0.0040120417405281        0.5499990000000000        0.1055000000000000
