6
s                      x[A]                      y[A]                      z[A]                      q[e]
N       -0.0023392811217582        1.1540769277693295       -0.2662370156388177        0.1979110000000000
N        0.0039610542274616        0.9927285269888338       -0.7459819136342952        0.1055000000000000
O       -0.2910474658685001        0.0011941921797442        0.1470090594985707       -0.3034110000000000
O        0.2910474658685001       -0.0008108900581180        0.1468709698961657       -0.3034110000000000
N        0.0017767211676001       -1.1541965393945193       -0.2663111057532088        0.1979110000000000
N       -0.0037811416432870       -0.9907390236742708       -0.7472546399240456        0.1055000000000000

        RMSE         7.783576990E-01 kcal/mol
         MAE         5.304810321E-01 kcal/mol
     max. AE         4.685108947E+00 kcal/mol

Coordinates in bohr
s                   x[bohr]                   y[bohr]                   z[bohr]                      q[e]
local coordinates in angstrom
s                      x[a]                      y[a]                       z[a                      q[e]
x        0.5500000000000000        0.0044206006505768        0.3179666571466218        0.1979110000000000
x       -0.3812675882944333       -0.0074853076579893        0.5361553980920376        0.1055000000000000
x        0.0666442587322957        0.5500000000000000       -0.0386263896370120       -0.3034110000000000
x        0.0644271581054280       -0.5500000000000000       -0.0417101386652277       -0.3034110000000000
x       -0.5500000000000000       -0.0033575164080678        0.3182325402420560        0.1979110000000000
x        0.3852919787667844        0.0071453221473760        0.5342257549755272        0.1055000000000000
