6
s                      x[A]                      y[A]                      z[A]                      q[e]
N        1.1346516861546341       -0.2699782409706129        0.0002067043396963        0.1979110000000000
N        0.9602825730140836       -0.7099030379195349       -0.0005667101191354        0.1055000000000000
O        0.0067297646564380        0.1771268573432427       -0.2910378779646063       -0.3034110000000000
O        0.0057567532452525        0.1759874544743473        0.2910378779646063       -0.3034110000000000
N       -1.1186256877391674       -0.1366574945651759       -0.0013268581155268        0.1979110000000000
N       -0.9826959724134994       -0.5871023938047958        0.0016110892599120        0.1055000000000000

        RMSE         7.385623225E-01 kcal/mol
         MAE         4.963267592E-01 kcal/mol
     max. AE         4.495192749E+00 kcal/mol

Coordinates in bohr
s                   x[bohr]                   y[bohr]                   z[bohr]                      q[e]
local coordinates in angstrom
s                      x[a]                      y[a]                       z[a                      q[e]
x        0.5427591417846998       -0.0003906145909696        0.3708116103352950        0.1979110000000000
x       -0.3380655291211951        0.0010709269176914        0.5252347153873416        0.1055000000000000
x        0.1468996076200710        0.5499818814875237       -0.0753248572636949       -0.3034110000000000
x        0.1441025035164785       -0.5499818814875237       -0.0757644182217518       -0.3034110000000000
x       -0.5410951260919319        0.0025073984456867        0.3701263965267572        0.1979110000000000
x        0.3366164822082283       -0.0030445174649003        0.5121676517155720        0.1055000000000000
