6
s                      x[A]                      y[A]                      z[A]                      q[e]
N        0.9311061775582763       -0.3582312635949792        0.0003258573473562        0.1979110000000000
N        0.6737927532785912       -0.9061642919148414        0.0003690782276670        0.1055000000000000
O       -0.0025810332632633        0.1091719863737247       -0.2913430994295839       -0.3034110000000000
O       -0.0021908682378970        0.1095451578421062        0.2913430994295839       -0.3034110000000000
N       -0.9261678359344088       -0.4550585747443753        0.0006469175793481        0.1979110000000000
N       -0.6435186611664584       -0.9703098086072176       -0.0014622788524949        0.1055000000000000

        RMSE         7.100588506E-01 kcal/mol
         MAE         4.854659549E-01 kcal/mol
     max. AE         4.332271938E+00 kcal/mol

Coordinates in bohr
s                   x[bohr]                   y[bohr]                   z[bohr]                      q[e]
local coordinates in angstrom
s                      x[a]                      y[a]                       z[a                      q[e]
x        0.5306880120319875       -0.0006157811424714        0.1982797697387468        0.1979110000000000
x       -0.5567963715507176       -0.0006974567691600        0.5531904273784676        0.1055000000000000
x       -0.0342432747281691        0.5505586664639424        0.0254958242001493       -0.3034110000000000
x       -0.0332244637318126       -0.5505586664639424        0.0255500317276187       -0.3034110000000000
x       -0.5001037700634470       -0.0012224970507120        0.1982800964424314        0.1979110000000000
x        0.5586363338561569        0.0027633065502641        0.5335765762629308        0.1055000000000000
