6
s                      x[A]                      y[A]                      z[A]                      q[e]
N        1.0127239765649290       -0.4294850083337766        0.0002918828579415        0.1979110000000000
N        0.7415645795089710       -0.9676113784348787       -0.0020321576563710        0.1055000000000000
O        0.0079528835623978        0.1082714484901443       -0.2910634399965982       -0.3034110000000000
O        0.0076650746552561        0.1081990283521758        0.2910634399965982       -0.3034110000000000
N       -1.0098085257033924       -0.3410904290174374       -0.0005183553959421        0.1979110000000000
N       -0.7547648967017289       -0.8943450756121162        0.0006714465955047        0.1055000000000000

        RMSE         7.268928736E-01 kcal/mol
         MAE         5.002995018E-01 kcal/mol
     max. AE         4.177970715E+00 kcal/mol

Coordinates in bohr
s                   x[bohr]                   y[bohr]                   z[bohr]                      q[e]
local coordinates in angstrom
s                      x[a]                      y[a]                       z[a                      q[e]
x        0.5452945144338628       -0.0005515786622254        0.2116741747322521        0.1979110000000000
x       -0.5456197248195167        0.0038402214142934        0.5381496246991446        0.1055000000000000
x       -0.0211009189438300        0.5500301867271986        0.0406427911316314       -0.3034110000000000
x       -0.0215740683124750       -0.5500301867271986        0.0403416861322512       -0.3034110000000000
x       -0.5481481113183690        0.0009795497339837        0.2218190929052071        0.1979110000000000
x        0.5617760678042032       -0.0012688501733749        0.5274757965271419        0.1055000000000000
