6
s                      x[A]                      y[A]                      z[A]                      q[e]
N       -0.0001621863231040        1.0255552530534224       -0.3515807368826120        0.1979110000000000
N       -0.0012651249097491        0.7622219391948343       -0.8831499641857906        0.1055000000000000
O       -0.2910732944229378        0.0006626378377114        0.1235738551065828       -0.3034110000000000
O        0.2910732944229378       -0.0005074428123932        0.1229177219494465       -0.3034110000000000
N        0.0000716577205622       -1.0264682726349723       -0.3521635506785128        0.1979110000000000
N        0.0000884703651525       -0.7588942746574721       -0.8836755708822260        0.1055000000000000

        RMSE         7.113155936E-01 kcal/mol
         MAE         4.873352410E-01 kcal/mol
     max. AE         4.211714671E+00 kcal/mol

Coordinates in bohr
s                   x[bohr]                   y[bohr]                   z[bohr]                      q[e]
local coordinates in angstrom
s                      x[a]                      y[a]                       z[a                      q[e]
x        0.5510496443125703        0.0003064877319616        0.2506562444468727        0.1979110000000000
x       -0.5393567281344076        0.0023907395939204        0.5108645424006681        0.1055000000000000
x        0.0020575302164616        0.5500488088941040       -0.0000834693050820       -0.3034110000000000
x       -0.0003100457324763       -0.5500488088941040       -0.0009895986668198       -0.3034110000000000
x       -0.5513070207680357       -0.0001354134666371        0.2526869104549405        0.1979110000000000
x        0.5441432469733627       -0.0001671847603575        0.5066669903026195        0.1055000000000000
