6
s                      x[A]                      y[A]                      z[A]                      q[e]
N        1.1242112703858422       -0.0765653281584327        0.0006368850865759        0.1979110000000000
N        1.0172429435133250       -0.5400029889149038       -0.0001792123834306        0.1055000000000000
O       -0.0143482718716596        0.1740851542683612       -0.2910050724322014       -0.3034110000000000
O       -0.0142618927787212        0.1745258690078738        0.2910050724322014       -0.3034110000000000
N       -1.1482991607975801       -0.3359235039850484       -0.0022047202939271        0.1979110000000000
N       -0.9943414693687497       -0.7803908048593015        0.0029060881758562        0.1055000000000000

        RMSE         7.575653107E-01 kcal/mol
         MAE         5.136277573E-01 kcal/mol
     max. AE         4.396543407E+00 kcal/mol

Coordinates in bohr
s                   x[bohr]                   y[bohr]                   z[bohr]                      q[e]
local coordinates in angstrom
s                      x[a]                      y[a]                       z[a                      q[e]
x        0.5483441044711981       -0.0012035383870170        0.3594915695994132        0.1979110000000000
x       -0.3358140819282198        0.0003386623229744        0.5210426792109502        0.1055000000000000
x        0.1303776454797116        0.5499198880158787       -0.0858227527714917       -0.3034110000000000
x        0.1312069586647340       -0.5499198880158787       -0.0860030044514133       -0.3034110000000000
x       -0.5496479521325455        0.0041663175387612        0.3433465332291235        0.1979110000000000
x        0.3085734660553499       -0.0054917107487995        0.5747961367123935        0.1055000000000000
