6
s                      x[A]                      y[A]                      z[A]                      q[e]
N        0.9428080963745992       -0.4026324727608969       -0.0005632513239832        0.1979110000000000
N        0.6875612739856145       -0.9421038815436985       -0.0000381211181016        0.1055000000000000
O       -0.0066629089650620        0.0915331157321113       -0.2910402624113885       -0.3034110000000000
O       -0.0086074291763846        0.0917929086946939        0.2910402624113885       -0.3034110000000000
N       -0.9405232387355082       -0.4850878033294707        0.0008982577420800        0.1979110000000000
N       -0.6722584744131659       -1.0093758569464013       -0.0012593796771378        0.1055000000000000

        RMSE         7.466408091E-01 kcal/mol
         MAE         5.138708227E-01 kcal/mol
     max. AE         4.685313133E+00 kcal/mol

Coordinates in bohr
s                   x[bohr]                   y[bohr]                   z[bohr]                      q[e]
local coordinates in angstrom
s                      x[a]                      y[a]                       z[a                      q[e]
x        0.5110247563839039        0.0010643907421297        0.1799331902657286        0.1979110000000000
x       -0.5550939050626766        0.0000720384728083        0.5478110085168737        0.1055000000000000
x       -0.0757347261223913        0.5499863874389028        0.0564470547760720       -0.3034110000000000
x       -0.0779528021894293       -0.5499863874389028        0.0534765461279676       -0.3034110000000000
x       -0.4998127144972386       -0.0016974611226033        0.1691325507599686        0.1979110000000000
x        0.5453696836175368        0.0023798826777579        0.5514883730393194        0.1055000000000000
