6
s                      x[A]                      y[A]                      z[A]                      q[e]
N        0.9262276108502819       -0.4204404090570483       -0.0004543786772851        0.1979110000000000
N        0.6703557307048844       -0.9510657672891193       -0.0017615307498197        0.1055000000000000
O       -0.0045725024247909        0.0840599670647538       -0.2910474658685001       -0.3034110000000000
O       -0.0068448925228045        0.0847690426416022        0.2910474658685001       -0.3034110000000000
N       -0.9205757229056336       -0.5053086152950473        0.0009766498782089        0.1979110000000000
N       -0.6507128587183311       -1.0190554903931019       -0.0002738842020808        0.1055000000000000

        RMSE         7.535848725E-01 kcal/mol
         MAE         5.185383370E-01 kcal/mol
     max. AE         4.900559942E+00 kcal/mol

Coordinates in bohr
s                   x[bohr]                   y[bohr]                   z[bohr]                      q[e]
local coordinates in angstrom
s                      x[a]                      y[a]                       z[a                      q[e]
x        0.4983126553021823        0.0008586512573167        0.1754063787111255        0.1979110000000000
x       -0.5500000000000000        0.0033288106787317        0.5500000000000000        0.1055000000000000
x       -0.0849373232435409        0.5500000000000000        0.0738452624377388       -0.3034110000000000
x       -0.0870545363173799       -0.5500000000000000        0.0698762565033533       -0.3034110000000000
x       -0.4776469378745990       -0.0018456007902766        0.1671934983451276        0.1979110000000000
x        0.5500000000000000        0.0005175661320223        0.5499990000000000        0.1055000000000000
