6
s                      x[A]                      y[A]                      z[A]                      q[e]
N        0.9475150075213806       -0.4083787693007304        0.0002879005540362        0.1979110000000000
N        0.6866190214147254       -0.9403867626809774       -0.0006708680905640        0.1055000000000000
O       -0.0030275867087739        0.0855453345064309       -0.2914099885805139       -0.3034110000000000
O       -0.0038704575123822        0.0865268491383743        0.2914099885805139       -0.3034110000000000
N       -0.9446649994268178       -0.4980015724891869        0.0003545163088000        0.1979110000000000
N       -0.6593619580204962       -1.0021272702527992        0.0001974391984017        0.1055000000000000

        RMSE         7.468492912E-01 kcal/mol
         MAE         5.121140231E-01 kcal/mol
     max. AE         4.804195205E+00 kcal/mol

Coordinates in bohr
s                   x[bohr]                   y[bohr]                   z[bohr]                      q[e]
local coordinates in angstrom
s                      x[a]                      y[a]                       z[a                      q[e]
x        0.5094795822024025       -0.0005440531984959        0.1938847389906186        0.1979110000000000
x       -0.5540187760902882        0.0012677569574748        0.5442692707838432        0.1055000000000000
x       -0.0790219497987437        0.5506850686399645        0.0692698106747542       -0.3034110000000000
x       -0.0788094048432413       -0.5506850686399645        0.0668342243630207       -0.3034110000000000
x       -0.4889713010290961       -0.0006699387306401        0.1923543643079029        0.1979110000000000
x        0.5539405196736880       -0.0003731060114092        0.5248780052361326        0.1055000000000000
