6
s                      x[A]                      y[A]                      z[A]                      q[e]
N       -0.0005889562409205        1.1629740740215495       -0.2675500080641084        0.1979110000000000
N       -0.0004145862073076        0.9830041622052856       -0.7483798949029539        0.1055000000000000
O       -0.2911891898655782        0.0001166590667017        0.1473609285906067       -0.3034110000000000
O        0.2911891898655782       -0.0016314300782848        0.1473977942501925       -0.3034110000000000
N       -0.0009310557883709       -1.1614706405869026       -0.2608807732032980        0.1979110000000000
N        0.0016796682266626       -0.9891266123963285       -0.7521125393471773        0.1055000000000000

        RMSE         7.707542575E-01 kcal/mol
         MAE         5.193240005E-01 kcal/mol
     max. AE         4.676448258E+00 kcal/mol

Coordinates in bohr
s                   x[bohr]                   y[bohr]                   z[bohr]                      q[e]
local coordinates in angstrom
s                      x[a]                      y[a]                       z[a                      q[e]
x        0.5567442406663758        0.0011129659952189        0.3335664721366811        0.1979110000000000
x       -0.3947966698628989        0.0007834543872036        0.5229194521189129        0.1055000000000000
x        0.0661372814465722        0.5502678195398829       -0.0407075906410199       -0.3034110000000000
x        0.0644569803832837       -0.5502678195398829       -0.0435525787802078       -0.3034110000000000
x       -0.5659622898236876        0.0017594404475432        0.3245146441877296        0.1979110000000000
x        0.3947007007379852       -0.0031741129300258        0.5364695200360075        0.1055000000000000
