6
s                      x[A]                      y[A]                      z[A]                      q[e]
N        0.9457483987858480       -0.4047214722667045       -0.0002218208770029        0.1979110000000000
N        0.6867241458217097       -0.9420914879444405       -0.0000912369787912        0.1055000000000000
O       -0.0055408523725688        0.0888166366276983       -0.2910402624113885       -0.3034110000000000
O       -0.0074929224752684        0.0894045383828582        0.2910402624113885       -0.3034110000000000
N       -0.9438453898674313       -0.4913355161388593        0.0011075045345651        0.1979110000000000
N       -0.6643478560338733       -1.0031077800852568       -0.0009073174265845        0.1055000000000000

        RMSE         7.466062411E-01 kcal/mol
         MAE         5.133689228E-01 kcal/mol
     max. AE         4.753234034E+00 kcal/mol

Coordinates in bohr
s                   x[bohr]                   y[bohr]                   z[bohr]                      q[e]
local coordinates in angstrom
s                      x[a]                      y[a]                       z[a                      q[e]
x        0.5120869830107040        0.0004191807064444        0.1866658508315595        0.1979110000000000
x       -0.5561831677259761        0.0001724129024296        0.5466635770790162        0.1055000000000000
x       -0.0779225507117189        0.5499863874389028        0.0615520762994493       -0.3034110000000000
x       -0.0797072886634851       -0.5499863874389028        0.0581378718411543       -0.3034110000000000
x       -0.4963953287588083       -0.0020928802530307        0.1820603056239634        0.1979110000000000
x        0.5482874096196610        0.0017145814450998        0.5326400479170843        0.1055000000000000
