6
s                      x[A]                      y[A]                      z[A]                      q[e]
N        1.1287276017951708       -0.3292916470344495        0.0010976553984306        0.1979110000000000
N        0.9375474080377720       -0.8077718557965847       -0.0023343880852420        0.1055000000000000
O        0.0073633161056862        0.1462315334266650       -0.2910474658685001       -0.3034110000000000
O        0.0078265869396734        0.1478908039978421        0.2910474658685001       -0.3034110000000000
N       -1.1247517633459436       -0.2184725460160447        0.0001694637531801        0.1979110000000000
N       -0.9341391102414551       -0.7106998689366816       -0.0004770814463940        0.1055000000000000

        RMSE         7.560296817E-01 kcal/mol
         MAE         5.130918576E-01 kcal/mol
     max. AE         4.615883917E+00 kcal/mol

Coordinates in bohr
s                   x[bohr]                   y[bohr]                   z[bohr]                      q[e]
local coordinates in angstrom
s                      x[a]                      y[a]                       z[a                      q[e]
x        0.5500000000000000       -0.0020742680831641        0.3126567799538970        0.1979110000000000
x       -0.3977597399443714        0.0044113541516392        0.5359163170883627        0.1055000000000000
x        0.0692808497981480        0.5500000000000000       -0.0315798084071568       -0.3034110000000000
x        0.0723508391084215       -0.5500000000000000       -0.0326630291469872       -0.3034110000000000
x       -0.5500000000000000       -0.0003202400817025        0.3307738727415573        0.1979110000000000
x        0.4342409736090672        0.0009015532732220        0.4927710251076601        0.1055000000000000
