6
s                      x[A]                      y[A]                      z[A]                      q[e]
N        1.1469648106679347       -0.1651226867911087       -0.0003062059297280        0.1979110000000000
N        1.0222490206641415       -0.6327362380975233        0.0013705915949942        0.1055000000000000
O       -0.0052701734232653        0.1638670335814660       -0.2910474658685001       -0.3034110000000000
O       -0.0062208698210312        0.1638037514114324        0.2910474658685001       -0.3034110000000000
N       -1.1608126166369426       -0.2921149571558287       -0.0005772964221022        0.1979110000000000
N       -1.0026936975735488       -0.7489050894612722        0.0000187317181122        0.1055000000000000

        RMSE         7.716910959E-01 kcal/mol
         MAE         5.232015002E-01 kcal/mol
     max. AE         4.523129317E+00 kcal/mol

Coordinates in bohr
s                   x[bohr]                   y[bohr]                   z[bohr]                      q[e]
local coordinates in angstrom
s                      x[a]                      y[a]                       z[a                      q[e]
x        0.5500000000000000        0.0005786453451771        0.3423400730135626        0.1979110000000000
x       -0.3435615035717562       -0.0025900427443934        0.5371476907590632        0.1055000000000000
x        0.1064085823434977        0.5500000000000000       -0.0659631946489633       -0.3034110000000000
x        0.1054801480365901       -0.5500000000000000       -0.0675058946707442       -0.3034110000000000
x       -0.5500000000000000        0.0010909321309798        0.3410327295210497        0.1979110000000000
x        0.3392378102348295       -0.0000353978170914        0.5499990000000000        0.1055000000000000
