6
s                      x[A]                      y[A]                      z[A]                      q[e]
N        1.1157779334576823       -0.2362219435193779       -0.0008578866681222        0.1979110000000000
N        0.9113705633130638       -0.7334678443352751        0.0011727817340349        0.1055000000000000
O       -0.0054193853769765        0.1406014550883679       -0.2910831848293367       -0.3034110000000000
O       -0.0066348338166439        0.1402039522601956        0.2910831848293367       -0.3034110000000000
N       -1.1236109612623713       -0.3451444889730480       -0.0003433799507174        0.1979110000000000
N       -0.8990644403261167       -0.8297042223851977        0.0002706839497258        0.1055000000000000

        RMSE         7.515702383E-01 kcal/mol
         MAE         5.079346878E-01 kcal/mol
     max. AE         4.596773629E+00 kcal/mol

Coordinates in bohr
s                   x[bohr]                   y[bohr]                   z[bohr]                      q[e]
local coordinates in angstrom
s                      x[a]                      y[a]                       z[a                      q[e]
x        0.5483850784457900        0.0016211708494325        0.3259532643041894        0.1979110000000000
x       -0.4543509255527169       -0.0022162362822655        0.4893126723727619        0.1055000000000000
x        0.0447141624258620        0.5500674990534673       -0.0395317377738138       -0.3034110000000000
x        0.0428708579975137       -0.5500674990534673       -0.0410944516602285       -0.3034110000000000
x       -0.5510841692348549        0.0006488940638292        0.3165254987761728        0.1979110000000000
x        0.4393045135257125       -0.0005115185315390        0.5106048117813771        0.1055000000000000
