6
s                      x[A]                      y[A]                      z[A]                      q[e]
N        1.0984120448347718       -0.1537138325128078       -0.0000036836159926        0.1979110000000000
N        0.9158047458122958       -0.6509944928111375       -0.0002886076149668        0.1055000000000000
O       -0.0125091345739205        0.1518563240628890       -0.2910364095817713       -0.3034110000000000
O       -0.0130099938262245        0.1518433148189385        0.2910364095817713       -0.3034110000000000
N       -1.1151160390276278       -0.3796420193630903       -0.0015015922189096        0.1979110000000000
N       -0.8902580446933562       -0.8526376170194390        0.0027036309590545        0.1055000000000000

        RMSE         7.382198405E-01 kcal/mol
         MAE         4.980339343E-01 kcal/mol
     max. AE         4.270695730E+00 kcal/mol

Coordinates in bohr
s                   x[bohr]                   y[bohr]                   z[bohr]                      q[e]
local coordinates in angstrom
s                      x[a]                      y[a]                       z[a                      q[e]
x        0.5494225910829300        0.0000069610253774        0.3423711556733906        0.1979110000000000
x       -0.4419595412964554        0.0005453893500089        0.4813741076504812        0.1055000000000000
x        0.0683093713087146        0.5499791066461182       -0.0633521366539753       -0.3034110000000000
x        0.0678412276802192       -0.5499791066461182       -0.0641751088292040       -0.3034110000000000
x       -0.5537724867353973        0.0028375980458577        0.3225684115914191        0.1979110000000000
x        0.4143703062627537       -0.0051091220569219        0.5279764259030344        0.1055000000000000
