6
s                      x[A]                      y[A]                      z[A]                      q[e]
N       -0.0001602363333169        1.0284946467595690       -0.3547502859890665        0.1979110000000000
N       -0.0000796851665937        0.7539119998092546       -0.8835607171203638        0.1055000000000000
O       -0.2910474658685001        0.0003526805166001        0.1217785659398162       -0.3034110000000000
O        0.2910474658685001       -0.0003505533521936        0.1213211331943731       -0.3034110000000000
N       -0.0012242444890909       -1.0279283557530334       -0.3542788884263361        0.1979110000000000
N        0.0016373196743862       -0.7547597851293064       -0.8842664389647490        0.1055000000000000

        RMSE         7.113318163E-01 kcal/mol
         MAE         4.861109250E-01 kcal/mol
     max. AE         4.249746852E+00 kcal/mol

Coordinates in bohr
s                   x[bohr]                   y[bohr]                   z[bohr]                      q[e]
local coordinates in angstrom
s                      x[a]                      y[a]                       z[a                      q[e]
x        0.5500000000000000        0.0003028027853165        0.2587573208459590        0.1979110000000000
x       -0.5500000000000000        0.0001505831411236        0.4992920111628383        0.1055000000000000
x       -0.0009246371430930        0.5500000000000000        0.0016368592365170       -0.3034110000000000
x       -0.0024392088695912       -0.5500000000000000        0.0011685369726779       -0.3034110000000000
x       -0.5500000000000000        0.0023134867949829        0.2573649361072889        0.1979110000000000
x        0.5500000000000000       -0.0030940857644137        0.5013765283592707        0.1055000000000000
