6
s                      x[A]                      y[A]                      z[A]                      q[e]
N        0.9909231074427918       -0.3026136176039911        0.0002336797314882        0.1979110000000000
N        0.7360766166682754       -0.8480145183361665       -0.0021962333560123        0.1055000000000000
O       -0.0058095230510212        0.1282120327181740       -0.2910805225927638       -0.3034110000000000
O       -0.0064073825708926        0.1276463021049883        0.2910805225927638       -0.3034110000000000
N       -0.9936709788482874       -0.3962210521436282       -0.0005390383165931        0.1979110000000000
N       -0.7142284014302286       -0.9299958476418881        0.0012212338757612        0.1055000000000000

        RMSE         6.927923456E-01 kcal/mol
         MAE         4.741626197E-01 kcal/mol
     max. AE         4.034469035E+00 kcal/mol

Coordinates in bohr
s                   x[bohr]                   y[bohr]                   z[bohr]                      q[e]
local coordinates in angstrom
s                      x[a]                      y[a]                       z[a                      q[e]
x        0.5546895277284420       -0.0004415906935833        0.2425631766418519        0.1979110000000000
x       -0.5493698289947133        0.0041502795504584        0.5168596022012935        0.1055000000000000
x        0.0021328392786018        0.5500624681554633       -0.0158530036246702       -0.3034110000000000
x        0.0005910205718465       -0.5500624681554633       -0.0160582974276622       -0.3034110000000000
x       -0.5483918750978773        0.0010186347894887        0.2333574527783639        0.1979110000000000
x        0.5517807552714658       -0.0023077975603201        0.5264954419799324        0.1055000000000000
