6
s                      x[A]                      y[A]                      z[A]                      q[e]
N        1.1131216879785910       -0.3548278479099478        0.0001499433460210        0.1979110000000000
N        0.8779219528305173       -0.8520056204627227       -0.0015646129610099        0.1055000000000000
O        0.0084891526165475        0.1361804869855495       -0.2911184628659624       -0.3034110000000000
O        0.0081284922244295        0.1357715713274918        0.2911184628659624       -0.3034110000000000
N       -1.1055330410227513       -0.2489355896995548       -0.0008804021718286        0.1979110000000000
N       -0.8888084279338296       -0.7598093794528318        0.0019574221053102        0.1055000000000000

        RMSE         7.428663847E-01 kcal/mol
         MAE         5.011675093E-01 kcal/mol
     max. AE         4.622640129E+00 kcal/mol

Coordinates in bohr
s                   x[bohr]                   y[bohr]                   z[bohr]                      q[e]
local coordinates in angstrom
s                      x[a]                      y[a]                       z[a                      q[e]
x        0.5558932921376254       -0.0002833518583145        0.3057268076918263        0.1979110000000000
x       -0.4624062575103380        0.0029566899886504        0.5138848100868927        0.1055000000000000
x        0.0456954156611573        0.5501341648809337       -0.0142194301479321       -0.3034110000000000
x        0.0446682943129417       -0.5501341648809337       -0.0143010158130892       -0.3034110000000000
x       -0.5534064607081746        0.0016637189850144        0.3148062255077093        0.1979110000000000
x        0.4803164120003203       -0.0036989916909533        0.4913503119096276        0.1055000000000000
