6
s                      x[A]                      y[A]                      z[A]                      q[e]
N        1.0101049103345257       -0.3903600694481703       -0.0004774213575043        0.1979110000000000
N        0.7276816888609996       -0.9116089835375243        0.0002471140690208        0.1055000000000000
O        0.0079995111538338        0.1305136782395687       -0.2914161418977113       -0.3034110000000000
O        0.0072782054476109        0.1299974836165927        0.2914161418977113       -0.3034110000000000
N       -1.0056273936376372       -0.2929638061231703       -0.0003461042125309        0.1979110000000000
N       -0.7521061711685789       -0.8310381058689582        0.0002532671854401        0.1055000000000000

        RMSE         6.937069183E-01 kcal/mol
         MAE         4.710747255E-01 kcal/mol
     max. AE         4.270882193E+00 kcal/mol

Coordinates in bohr
s                   x[bohr]                   y[bohr]                   z[bohr]                      q[e]
local coordinates in angstrom
s                      x[a]                      y[a]                       z[a                      q[e]
x        0.5473180587755451        0.0009021956121273        0.2547863998938737        0.1979110000000000
x       -0.5435409709848500       -0.0004669779121969        0.5099820692958019        0.1055000000000000
x        0.0254980894872006        0.5506966967242306       -0.0024311367150318       -0.3034110000000000
x        0.0238635510779659       -0.5506966967242306       -0.0028023233057581       -0.3034110000000000
x       -0.5533598070121570        0.0006540421725507        0.2603459126989947        0.1979110000000000
x        0.5431428868132571       -0.0004786056170474        0.5075578281794151        0.1055000000000000
