6
s                      x[A]                      y[A]                      z[A]                      q[e]
N        1.1025290203549518       -0.3160442628682165       -0.0003922233308385        0.1979110000000000
N        0.8617937680616730       -0.7894486772864244        0.0003288359540561        0.1055000000000000
O        0.0125331915808794        0.1568980806058908       -0.2913940730301169       -0.3034110000000000
O        0.0112241000818297        0.1555742585891879        0.2913940730301169       -0.3034110000000000
N       -1.0899885062741677       -0.2073784300841134       -0.0015015334440732        0.1979110000000000
N       -0.8818677485332201       -0.6848744982298771        0.0027608923566988        0.1055000000000000

        RMSE         7.246837397E-01 kcal/mol
         MAE         4.826201223E-01 kcal/mol
     max. AE         4.675931508E+00 kcal/mol

Coordinates in bohr
s                   x[bohr]                   y[bohr]                   z[bohr]                      q[e]
local coordinates in angstrom
s                      x[a]                      y[a]                       z[a                      q[e]
x        0.5549964952729169        0.0007411946752995        0.3452012330844809        0.1979110000000000
x       -0.4383691428613474       -0.0006214098933697        0.4883718615083126        0.1055000000000000
x        0.0996769522939758        0.5506549926085782       -0.0412303414000519       -0.3034110000000000
x        0.0962071905200901       -0.5506549926085782       -0.0418124654737824       -0.3034110000000000
x       -0.5391422897719167        0.0028374869775138        0.3539718925599118        0.1979110000000000
x        0.4381656815000952       -0.0052173304160306        0.4712698660050592        0.1055000000000000
