6
s                      x[A]                      y[A]                      z[A]                      q[e]
N       -0.0030477184394207        1.0924937680131375       -0.2188408440126899        0.1979110000000000
N        0.0043144109954583        0.9012579816846817       -0.6877427215936283        0.1055000000000000
O       -0.2910474658685001        0.0013714951941627        0.1743717624826836       -0.3034110000000000
O        0.2910474658685001       -0.0011550279428967        0.1718996577158127       -0.3034110000000000
N       -0.0010493365093581       -1.0912988107403245       -0.2181292127695673        0.1979110000000000
N        0.0030923121510794       -0.9026251755020486       -0.6890514141322471        0.1055000000000000

        RMSE         7.041271973E-01 kcal/mol
         MAE         4.709529798E-01 kcal/mol
     max. AE         4.229717937E+00 kcal/mol

Coordinates in bohr
s                   x[bohr]                   y[bohr]                   z[bohr]                      q[e]
local coordinates in angstrom
s                      x[a]                      y[a]                       z[a                      q[e]
x        0.5500000000000000        0.0057593531580129        0.3575774595285433        0.1979110000000000
x       -0.3962271770432496       -0.0081530551740801        0.5004702158605130        0.1055000000000000
x        0.1334082359128838        0.5500000000000000       -0.0764318929520041       -0.3034110000000000
x        0.1269515477917528       -0.5500000000000000       -0.0781436991956759       -0.3034110000000000
x       -0.5500000000000000        0.0019829586161307        0.3549492167005966        0.1979110000000000
x        0.3970300405212592       -0.0058436230599655        0.5039554116700815        0.1055000000000000
