6
s                      x[A]                      y[A]                      z[A]                      q[e]
N        1.1154252362205688       -0.1298554077867029        0.0020664459399447        0.1979110000000000
N        0.9935674615515613       -0.5900039559917167       -0.0041657576553799        0.1055000000000000
O       -0.0059629509914385        0.1793387463420380       -0.2910474658685001       -0.3034110000000000
O       -0.0054346027783759        0.1789651318275663        0.2910474658685001       -0.3034110000000000
N       -1.1301883094281884       -0.2627390149991246       -0.0029963860896347        0.1979110000000000
N       -0.9709707893728837       -0.7175402729810357        0.0048438135905868        0.1055000000000000

        RMSE         7.343125630E-01 kcal/mol
         MAE         4.930805975E-01 kcal/mol
     max. AE         4.284646126E+00 kcal/mol

Coordinates in bohr
s                   x[bohr]                   y[bohr]                   z[bohr]                      q[e]
local coordinates in angstrom
s                      x[a]                      y[a]                       z[a                      q[e]
x        0.5500000000000000       -0.0039050168795597        0.3590580341646921        0.1979110000000000
x       -0.3325443370453245        0.0078721410736973        0.5330373479517496        0.1055000000000000
x        0.1467768445497373        0.5500000000000000       -0.0840748040933500       -0.3034110000000000
x        0.1465796313811391       -0.5500000000000000       -0.0828679679959590       -0.3034110000000000
x       -0.5500000000000000        0.0056623490755411        0.3564638441760652        0.1979110000000000
x        0.3397895309548588       -0.0091534810889796        0.5499990000000000        0.1055000000000000
