6
s                      x[A]                      y[A]                      z[A]                      q[e]
N       -0.0004206250644474        1.0467641965374987       -0.2892417055916447        0.1979110000000000
N       -0.0003378088271565        0.7814662237447284       -0.7863909891248705        0.1055000000000000
O       -0.2910474658685001        0.0006170008176852        0.1494190090665800       -0.3034110000000000
O        0.2910474658685001       -0.0006168554978281        0.1480816163615870       -0.3034110000000000
N       -0.0008329454583229       -1.0468279523962762       -0.2892876455185008        0.1979110000000000
N        0.0016573758459162       -0.7810632086446012       -0.7851339107138959        0.1055000000000000

        RMSE         6.873386652E-01 kcal/mol
         MAE         4.623895627E-01 kcal/mol
     max. AE         4.276137329E+00 kcal/mol

Coordinates in bohr
s                   x[bohr]                   y[bohr]                   z[bohr]                      q[e]
local coordinates in angstrom
s                      x[a]                      y[a]                       z[a                      q[e]
x        0.5500000000000000        0.0007948661733086        0.3240569193803315        0.1979110000000000
x       -0.5053001898018424        0.0006383661660879        0.4665313070639205        0.1055000000000000
x        0.0668195289020335        0.5500000000000000       -0.0467103651679840       -0.3034110000000000
x        0.0634059859409456       -0.5500000000000000       -0.0471246040624499       -0.3034110000000000
x       -0.5500000000000000        0.0015740387936742        0.3242054197106411        0.1979110000000000
x        0.5038181018917797       -0.0031319864357305        0.4645246697426685        0.1055000000000000
