6
s                      x[A]                      y[A]                      z[A]                      q[e]
N       -0.0000075839761605        0.9624889275824901       -0.4005576019229620        0.1979110000000000
N       -0.0014566391319568        0.6949910751110597       -0.9408856603234761        0.1055000000000000
O       -0.2910820753710096        0.0006626744030432        0.1085902876803990       -0.3034110000000000
O        0.2910820753710096       -0.0005765063557091        0.1082797034385539       -0.3034110000000000
N        0.0003673448442859       -0.9627765199486238       -0.4012922994492467        0.1979110000000000
N       -0.0004381579743144       -0.6929989470520347       -0.9411338242218594        0.1055000000000000

        RMSE         7.194471883E-01 kcal/mol
         MAE         4.947120625E-01 kcal/mol
     max. AE         4.160656674E+00 kcal/mol

Coordinates in bohr
s                   x[bohr]                   y[bohr]                   z[bohr]                      q[e]
local coordinates in angstrom
s                      x[a]                      y[a]                       z[a                      q[e]
x        0.5307054561085351        0.0000143316378853        0.1982217670720274        0.1979110000000000
x       -0.5562895163766370        0.0027526490230230        0.5396276287283399        0.1055000000000000
x       -0.0320214713833593        0.5500654024810814        0.0324149895704977       -0.3034110000000000
x       -0.0340653262555861       -0.5500654024810814        0.0311301753281441       -0.3034110000000000
x       -0.5300789501889085       -0.0006941811492993        0.1995747053006198        0.1979110000000000
x        0.5592325764437192        0.0008279985711397        0.5372338120323548        0.1055000000000000
