6
s                      x[A]                      y[A]                      z[A]                      q[e]
N        0.9022152736732834       -0.5153457468172994        0.0009284978894004        0.1979110000000000
N        0.6417130525472508       -1.0278492280473248       -0.0031090745400577        0.1055000000000000
O        0.0088296523379903        0.0802371891595271       -0.2910637221221926       -0.3034110000000000
O        0.0081714691729179        0.0806535724709875        0.2910637221221926       -0.3034110000000000
N       -0.9053170856407119       -0.4362386752349352       -0.0008245326901795        0.1979110000000000
N       -0.6598078785112825       -0.9629158836051596        0.0022268234198676        0.1055000000000000

        RMSE         7.624838836E-01 kcal/mol
         MAE         5.233153185E-01 kcal/mol
     max. AE         5.260280947E+00 kcal/mol

Coordinates in bohr
s                   x[bohr]                   y[bohr]                   z[bohr]                      q[e]
local coordinates in angstrom
s                      x[a]                      y[a]                       z[a                      q[e]
x        0.4705477450852413       -0.0017546067190324        0.1539044533037668        0.1979110000000000
x       -0.5356825985227260        0.0058752993843427        0.5635545713885222        0.1055000000000000
x       -0.0684798957045132        0.5500307198673049        0.1045259656593771       -0.3034110000000000
x       -0.0689047303958432       -0.5500307198673049        0.1031168338372481       -0.3034110000000000
x       -0.4823102365398881        0.0015581409659262        0.1635723972049163        0.1979110000000000
x        0.5396482259557160       -0.0042080863933052        0.5653430965503503        0.1055000000000000
