6
s                      x[A]                      y[A]                      z[A]                      q[e]
N       -0.0001280878618305        0.9570805829661795       -0.3435953306800800        0.1979110000000000
N        0.0007691712394565        0.7005225009182051       -0.8949394810927667        0.1055000000000000
O       -0.2910474658685001       -0.0002396051565312        0.1339758519095811       -0.3034110000000000
O        0.2910474658685001        0.0001444768617981        0.1337468208981676       -0.3034110000000000
N       -0.0004014326633223       -0.9569603418699548       -0.3434879170628780        0.1979110000000000
N       -0.0004994647075535       -0.7004372712578277       -0.8948633438451743        0.1055000000000000

        RMSE         6.799383525E-01 kcal/mol
         MAE         4.637471414E-01 kcal/mol
     max. AE         3.927407200E+00 kcal/mol

Coordinates in bohr
s                   x[bohr]                   y[bohr]                   z[bohr]                      q[e]
local coordinates in angstrom
s                      x[a]                      y[a]                       z[a                      q[e]
x        0.5500000000000000        0.0002420509788552        0.2160959968703672        0.1979110000000000
x       -0.5500000000000000       -0.0014535229861518        0.5486443719248536        0.1055000000000000
x        0.0178209763726526        0.5500000000000000       -0.0165269555819848       -0.3034110000000000
x        0.0179817439620632       -0.5500000000000000       -0.0156973324035982       -0.3034110000000000
x       -0.5500000000000000        0.0007585977914923        0.2157913134352015        0.1979110000000000
x        0.5500000000000000        0.0009438515066080        0.5484284052835210        0.1055000000000000
