6
s                      x[A]                      y[A]                      z[A]                      q[e]
N        1.0414210764364980       -0.4371486166882168       -0.0008327304037114        0.1979110000000000
N        0.7578735914352518       -0.9492617524492131        0.0011080218576926        0.1055000000000000
O        0.0141850231166617        0.1270763323543899       -0.2910311783142298       -0.3034110000000000
O        0.0135640346352283        0.1268354118664228        0.2910311783142298       -0.3034110000000000
N       -1.0324828325340702       -0.2459353423922474        0.0000012514351595        0.1979110000000000
N       -0.7891159874506566       -0.7837535676764267       -0.0002084859547147        0.1055000000000000

        RMSE         7.113375277E-01 kcal/mol
         MAE         4.868854731E-01 kcal/mol
     max. AE         4.266926972E+00 kcal/mol

Coordinates in bohr
s                   x[bohr]                   y[bohr]                   z[bohr]                      q[e]
local coordinates in angstrom
s                      x[a]                      y[a]                       z[a                      q[e]
x        0.5523638182748982        0.0015736323993565        0.2561125701558922        0.1979110000000000
x       -0.5231903428320948       -0.0020938578520600        0.5146486274825293        0.1055000000000000
x        0.0274506171117537        0.5499692209831757        0.0112074251223930       -0.3034110000000000
x        0.0263222620442320       -0.5499692209831757        0.0106495837967486       -0.3034110000000000
x       -0.5542200022073303       -0.0000023648697152        0.2769398658365390        0.1979110000000000
x        0.5418720883772039        0.0003939813554155        0.4843332923155685        0.1055000000000000
