6
s                      x[A]                      y[A]                      z[A]                      q[e]
N        1.1179216890348267       -0.3827271706215004       -0.0002269438643172        0.1979110000000000
N        0.8807370049939702       -0.8533624530873837        0.0005647359463662        0.1055000000000000
O        0.0146157426171954        0.1514412622478834       -0.2910566993001487       -0.3034110000000000
O        0.0137287355217027        0.1510787737186690        0.2910566993001487       -0.3034110000000000
N       -1.1010499140645409       -0.1561570044554152       -0.0001161011230243        0.1979110000000000
N       -0.9081718211055145       -0.6480857680990957        0.0013474956661791        0.1055000000000000

        RMSE         7.399716162E-01 kcal/mol
         MAE         4.976460722E-01 kcal/mol
     max. AE         4.592278223E+00 kcal/mol

Coordinates in bohr
s                   x[bohr]                   y[bohr]                   z[bohr]                      q[e]
local coordinates in angstrom
s                      x[a]                      y[a]                       z[a                      q[e]
x        0.5523618592064850        0.0004288617494126        0.3303214975039737        0.1979110000000000
x       -0.4263875443302823       -0.0010671962718334        0.5145161171567452        0.1055000000000000
x        0.0877392010784206        0.5500174486570142       -0.0323233948374764       -0.3034110000000000
x        0.0861768658041910       -0.5500174486570142       -0.0332388111833097       -0.3034110000000000
x       -0.5477029982321255        0.0002193993253741        0.3489444150036434        0.1979110000000000
x        0.4439168098006121       -0.0025463977643199        0.4660627239863970        0.1055000000000000
