6
s                      x[A]                      y[A]                      z[A]                      q[e]
N        0.0004076592408264        1.1043277397521962       -0.2110664538605173        0.1979110000000000
N       -0.0012358302798442        0.9145305214027714       -0.6643068204146417        0.1055000000000000
O       -0.2910136444226862        0.0004700864780313        0.1750986264271707       -0.3034110000000000
O        0.2910136444226862       -0.0003654899806224        0.1738276403018003       -0.3034110000000000
N       -0.0023223561254789       -1.1031144204405550       -0.2110193766748967        0.1979110000000000
N        0.0038950832423128       -0.9158038235475237       -0.6652440917808450        0.1055000000000000

        RMSE         7.139880425E-01 kcal/mol
         MAE         4.756557770E-01 kcal/mol
     max. AE         4.311989920E+00 kcal/mol

Coordinates in bohr
s                   x[bohr]                   y[bohr]                   z[bohr]                      q[e]
local coordinates in angstrom
s                      x[a]                      y[a]                       z[a                      q[e]
x        0.5420488091872357       -0.0007703643176740        0.3764041419799469        0.1979110000000000
x       -0.3794893277536175        0.0023353807664535        0.4904234423120215        0.1055000000000000
x        0.1395634582390812        0.5499360867302450       -0.0788244485261202       -0.3034110000000000
x        0.1366945956942800       -0.5499360867302450       -0.0790022713754297       -0.3034110000000000
x       -0.5409874133647463        0.0043886170429346        0.3743698179896455        0.1979110000000000
x        0.3798317821201636       -0.0073606405638316        0.4933915371620969        0.1055000000000000
