6
s                      x[A]                      y[A]                      z[A]                      q[e]
N        0.9778075868326195       -0.4759737276697844       -0.0003516239798806        0.1979110000000000
N        0.6880030642576461       -1.0027950708173241        0.0003672626670204        0.1055000000000000
O        0.0135371309204258        0.1124633168360235       -0.2910332893617907       -0.3034110000000000
O        0.0131361687494536        0.1126341455248965        0.2910332893617907       -0.3034110000000000
N       -0.9756526728242216       -0.2994545947261002        0.0000328034342563        0.1979110000000000
N       -0.7238093571817887       -0.8544972596162806       -0.0005697578935165        0.1055000000000000

        RMSE         7.127991979E-01 kcal/mol
         MAE         4.915342573E-01 kcal/mol
     max. AE         4.086220618E+00 kcal/mol

Coordinates in bohr
s                   x[bohr]                   y[bohr]                   z[bohr]                      q[e]
local coordinates in angstrom
s                      x[a]                      y[a]                       z[a                      q[e]
x        0.5331241001217677        0.0006644730211178        0.2012064282480424        0.1979110000000000
x       -0.5523868518885138       -0.0006940258567738        0.5369201699613768        0.1055000000000000
x       -0.0052254697902754        0.5499732102849038        0.0422374149393363       -0.3034110000000000
x       -0.0055462753898610       -0.5499732102849038        0.0414788514190150       -0.3034110000000000
x       -0.5475408826332568       -0.0000619895067189        0.2211872595617024        0.1979110000000000
x        0.5642584307024663        0.0010766863765639        0.5220919644889364        0.1055000000000000
