6
s                      x[A]                      y[A]                      z[A]                      q[e]
N        0.8840743622043827       -0.5508586369876344        0.0005216766250219        0.1979110000000000
N        0.6015896133580869       -1.0445946268371336       -0.0014066035907872        0.1055000000000000
O        0.0116772437787283        0.0861661411406842       -0.2910474658685001       -0.3034110000000000
O        0.0114461721650747        0.0866771395689528        0.2910474658685001       -0.3034110000000000
N       -0.8958967487834646       -0.3853822044615015       -0.0008586755560878        0.1979110000000000
N       -0.6415452069740059       -0.9129133648448368        0.0015794374913544        0.1055000000000000

        RMSE         7.417083050E-01 kcal/mol
         MAE         5.082033019E-01 kcal/mol
     max. AE         5.013163346E+00 kcal/mol

Coordinates in bohr
s                   x[bohr]                   y[bohr]                   z[bohr]                      q[e]
local coordinates in angstrom
s                      x[a]                      y[a]                       z[a                      q[e]
x        0.4554910304527418       -0.0009858259473445        0.1666371302610450        0.1979110000000000
x       -0.5500000000000000        0.0026580955536734        0.5467521803501788        0.1055000000000000
x       -0.0503394533497154        0.5500000000000000        0.0957122238830453       -0.3034110000000000
x       -0.0500618805383512       -0.5500000000000000        0.0946894329089936       -0.3034110000000000
x       -0.4943605212032405        0.0016226616316312        0.1837632819288607        0.1979110000000000
x        0.5500000000000000       -0.0029847042909400        0.5499990000000000        0.1055000000000000
