6
s                      x[A]                      y[A]                      z[A]                      q[e]
N        0.9287841719650105       -0.4512965755912662       -0.0000848521529756        0.1979110000000000
N        0.6438940794547984       -0.9735896517961179        0.0000694332470325        0.1055000000000000
O        0.0068915431075418        0.1095748998435240       -0.2914220195619751       -0.3034110000000000
O        0.0068180525677796        0.1096659391269939        0.2914220195619751       -0.3034110000000000
N       -0.9309076405057035       -0.3627172300971108       -0.0001928294753206        0.1979110000000000
N       -0.6665191452728032       -0.9034687796454470       -0.0002621336335837        0.1055000000000000

        RMSE         7.073433283E-01 kcal/mol
         MAE         4.825045463E-01 kcal/mol
     max. AE         4.280032013E+00 kcal/mol

Coordinates in bohr
s                   x[bohr]                   y[bohr]                   z[bohr]                      q[e]
local coordinates in angstrom
s                      x[a]                      y[a]                       z[a                      q[e]
x        0.5085892071842864        0.0001603473302794        0.1965532359645294        0.1979110000000000
x       -0.5624037617501472       -0.0001312098208928        0.5385490061962628        0.1055000000000000
x       -0.0193470751130462        0.5507078038999467        0.0391169500944386       -0.3034110000000000
x       -0.0193286978910692       -0.5507078038999467        0.0388966171148297       -0.3034110000000000
x       -0.5242544000648195        0.0003643948972716        0.2038126833363094        0.1979110000000000
x        0.5624993474264102        0.0004953607757443        0.5396866805385798        0.1055000000000000
