6
s                      x[A]                      y[A]                      z[A]                      q[e]
N        1.0792202363434116       -0.1870608370742119       -0.0002694066303077        0.1979110000000000
N        0.8702994949945045       -0.6997802296507675       -0.0004805059631863        0.1055000000000000
O       -0.0132930765837909        0.1429437957961235       -0.2910388319338074       -0.3034110000000000
O       -0.0139436430991254        0.1427444263236718        0.2910388319338074       -0.3034110000000000
N       -1.0924056422935509       -0.3976231393819029       -0.0012517159035402        0.1979110000000000
N       -0.8465129360215066       -0.8883794997725042        0.0022669779564518        0.1055000000000000

        RMSE         7.276108919E-01 kcal/mol
         MAE         4.920986244E-01 kcal/mol
     max. AE         4.285129867E+00 kcal/mol

Coordinates in bohr
s                   x[bohr]                   y[bohr]                   z[bohr]                      q[e]
local coordinates in angstrom
s                      x[a]                      y[a]                       z[a                      q[e]
x        0.5512074942830623        0.0005091047476640        0.3242834043376206        0.1979110000000000
x       -0.4840523827706420        0.0009080246720714        0.4755186601214518        0.1055000000000000
x        0.0413938056462939        0.5499836842280459       -0.0535129431518726       -0.3034110000000000
x        0.0404455087254973       -0.5499836842280459       -0.0543813222852805       -0.3034110000000000
x       -0.5567424729342747        0.0023654002445710        0.3002289308860782        0.1979110000000000
x        0.4561361481810309       -0.0042839674701440        0.5239624513633316        0.1055000000000000
