6
s                      x[A]                      y[A]                      z[A]                      q[e]
N       -0.0001020775538316        0.9792110176468992       -0.3875215932890369        0.1979110000000000
N       -0.0013935873344734        0.7112369389982581       -0.9280705631029637        0.1055000000000000
O       -0.2910779900731701        0.0004260261737953        0.1126246918543746       -0.3034110000000000
O        0.2910779900731701       -0.0008171727593411        0.1122119211090498       -0.3034110000000000
N        0.0003215813785023       -0.9796879809772112       -0.3875781430151542        0.1979110000000000
N       -0.0004351841292266       -0.7093927953224878       -0.9288449103994967        0.1055000000000000

        RMSE         7.140172662E-01 kcal/mol
         MAE         4.911151875E-01 kcal/mol
     max. AE         4.068706718E+00 kcal/mol

Coordinates in bohr
s                   x[bohr]                   y[bohr]                   z[bohr]                      q[e]
local coordinates in angstrom
s                      x[a]                      y[a]                       z[a                      q[e]
x        0.5384601533155546        0.0001928986202984        0.2105156623110815        0.1979110000000000
x       -0.5552453047694144        0.0026334983940615        0.5325214659533231        0.1055000000000000
x       -0.0239089436331597        0.5500576823870240        0.0232173398244413       -0.3034110000000000
x       -0.0260769642654850       -0.5500576823870240        0.0220226181845646       -0.3034110000000000
x       -0.5389938248817998       -0.0006077007324166        0.2112498355563730        0.1979110000000000
x        0.5586860954608710        0.0008223788183841        0.5309571988618700        0.1055000000000000
