6
s                      x[A]                      y[A]                      z[A]                      q[e]
N        1.0924314092153775       -0.1773365730796466        0.0011686887640475        0.1979110000000000
N        0.9254164706638394       -0.6662087263363295       -0.0031186833915812        0.1055000000000000
O       -0.0054157755802719        0.1662271280413319       -0.2911885125357555       -0.3034110000000000
O       -0.0056336119231390        0.1656278101332516        0.2911885125357555       -0.3034110000000000
N       -1.1042843339019148       -0.2949654805685915       -0.0021277997145946        0.1979110000000000
N       -0.9042087557847738       -0.7787711735470797        0.0035253543958598        0.1055000000000000

        RMSE         7.164089964E-01 kcal/mol
         MAE         4.798918139E-01 kcal/mol
     max. AE         4.186907004E+00 kcal/mol

Coordinates in bohr
s                   x[bohr]                   y[bohr]                   z[bohr]                      q[e]
local coordinates in angstrom
s                      x[a]                      y[a]                       z[a                      q[e]
x        0.5558013319550810       -0.0022085016899496        0.3375834349308207        0.1979110000000000
x       -0.4042995448501188        0.0058934574821023        0.5144667252397994        0.1055000000000000
x        0.1066728894954849        0.5502665395720214       -0.0715993831519768       -0.3034110000000000
x        0.1054837777317061       -0.5502665395720214       -0.0714041094239519       -0.3034110000000000
x       -0.5598951626277540        0.0040209587104112        0.3311067666536474        0.1979110000000000
x        0.4086151925921513       -0.0066619543033539        0.5331218202773016        0.1055000000000000
