6
s                      x[A]                      y[A]                      z[A]                      q[e]
N        1.0882813034151728       -0.1986118452920200        0.0008250991579699        0.1979110000000000
N        0.8893632498992203       -0.6897927894199136       -0.0027676396026237        0.1055000000000000
O       -0.0050882442377940        0.1579535320819400       -0.2910629245991702       -0.3034110000000000
O       -0.0053928370991461        0.1571800779456085        0.2910629245991702       -0.3034110000000000
N       -1.0972182395421208       -0.3137911262890069       -0.0020285382414657        0.1979110000000000
N       -0.8709439334732318       -0.7939939185795871        0.0039483839603165        0.1055000000000000

        RMSE         7.178385499E-01 kcal/mol
         MAE         4.813096008E-01 kcal/mol
     max. AE         4.319008195E+00 kcal/mol

Coordinates in bohr
s                   x[bohr]                   y[bohr]                   z[bohr]                      q[e]
local coordinates in angstrom
s                      x[a]                      y[a]                       z[a                      q[e]
x        0.5517996307144131       -0.0015592114349090        0.3428073587838298        0.1979110000000000
x       -0.4390160483008003        0.0052300808629298        0.4881900007349032        0.1055000000000000
x        0.0876276919952943        0.5500292127672139       -0.0625467681661576       -0.3034110000000000
x        0.0860757323935104       -0.5500292127672139       -0.0623037534328432       -0.3034110000000000
x       -0.5526989733043592        0.0038333817113880        0.3345443074904324        0.1979110000000000
x        0.4354353349172015       -0.0074613643231487        0.5074547717740643        0.1055000000000000
