6
s                      x[A]                      y[A]                      z[A]                      q[e]
N        1.0695716831758058       -0.4195257046407107       -0.0008093460610363        0.1979110000000000
N        0.7958998661402773       -0.9188114675393009        0.0011710532801437        0.1055000000000000
O        0.0145444921748351        0.1344406318870205       -0.2910387220081035       -0.3034110000000000
O        0.0138145060863230        0.1340862701742842        0.2910387220081035       -0.3034110000000000
N       -1.0580944859537864       -0.2187331441797619       -0.0000345894547819        0.1979110000000000
N       -0.8250035359997053       -0.7420789337566213        0.0002753357524915        0.1055000000000000

        RMSE         7.183590844E-01 kcal/mol
         MAE         4.884356522E-01 kcal/mol
     max. AE         4.389228241E+00 kcal/mol

Coordinates in bohr
s                   x[bohr]                   y[bohr]                   z[bohr]                      q[e]
local coordinates in angstrom
s                      x[a]                      y[a]                       z[a                      q[e]
x        0.5545703948337177        0.0015294423960768        0.2837929081288166        0.1979110000000000
x       -0.4977267087415385       -0.0022129699777906        0.5081757507396105        0.1055000000000000
x        0.0456217652672422        0.5499834764985714       -0.0030422625286519       -0.3034110000000000
x        0.0442138370808607       -0.5499834764985714       -0.0036498089793895       -0.3034110000000000
x       -0.5523266539439646        0.0000653645963666        0.3048504945272725        0.1979110000000000
x        0.5176320025011591       -0.0005203091647559        0.4700511331866437        0.1055000000000000
