6
s                      x[A]                      y[A]                      z[A]                      q[e]
N        0.9604110480896251       -0.4875369398184059       -0.0001637774789650        0.1979110000000000
N        0.6712695586364114       -1.0139376990939268        0.0000520107221098        0.1055000000000000
O        0.0133836525369803        0.1084706300512373       -0.2910372690670434       -0.3034110000000000
O        0.0130464688315414        0.1087445215953072        0.2910372690670434       -0.3034110000000000
N       -0.9601897268797053       -0.3137667002715999       -0.0000367032407522        0.1979110000000000
N       -0.7087505727435280       -0.8691878122419153       -0.0004380800741585        0.1055000000000000

        RMSE         7.183672848E-01 kcal/mol
         MAE         4.946909008E-01 kcal/mol
     max. AE         4.180741078E+00 kcal/mol

Coordinates in bohr
s                   x[bohr]                   y[bohr]                   z[bohr]                      q[e]
local coordinates in angstrom
s                      x[a]                      y[a]                       z[a                      q[e]
x        0.5237125331736934        0.0003094945807618        0.1895110972982366        0.1979110000000000
x       -0.5549987576714557       -0.0000982860203749        0.5423099574691150        0.1055000000000000
x       -0.0130713932167055        0.5499807308378912        0.0509714059921862       -0.3034110000000000
x       -0.0131828472976849       -0.5499807308378912        0.0501580969530551       -0.3034110000000000
x       -0.5419854113497422        0.0000693590729384        0.2086549412579188        0.1979110000000000
x        0.5638175075591789        0.0008278513611799        0.5320983279998472        0.1055000000000000
