6
s                      x[A]                      y[A]                      z[A]                      q[e]
N       -0.0003869124912408        1.1711678816042139       -0.2555208165597671        0.1979110000000000
N        0.0004151111226580        1.0055504333468617       -0.7258961267795319        0.1055000000000000
O       -0.2910877251163870        0.0017211014206876        0.1495032274218182       -0.3034110000000000
O        0.2910877251163870        0.0006331298267072        0.1496120139402424       -0.3034110000000000
N       -0.0008606669540129       -1.1713417471547996       -0.2557624683527406        0.1979110000000000
N        0.0019557132709258       -1.0029572315539987       -0.7262768268561338        0.1055000000000000

        RMSE         7.861327222E-01 kcal/mol
         MAE         5.304898981E-01 kcal/mol
     max. AE         4.826049164E+00 kcal/mol

Coordinates in bohr
s                   x[bohr]                   y[bohr]                   z[bohr]                      q[e]
local coordinates in angstrom
s                      x[a]                      y[a]                       z[a                      q[e]
x        0.5499015260584201        0.0007311586429637        0.3417030129276100        0.1979110000000000
x       -0.3739472692641357       -0.0007844463334550        0.5276148281700443        0.1055000000000000
x        0.0767543223801113        0.5500760789525234       -0.0419239170209948       -0.3034110000000000
x        0.0758789770989097       -0.5500760789525234       -0.0437955575484921       -0.3034110000000000
x       -0.5496772879200762        0.0016264248283164        0.3422189608227200        0.1979110000000000
x        0.3770727811597681       -0.0036957624619731        0.5237725550614414        0.1055000000000000
