6
s                      x[A]                      y[A]                      z[A]                      q[e]
N        0.8934015204270498       -0.4805432464255588       -0.0004558644619691        0.1979110000000000
N        0.6093512996832495       -0.9890756360927261        0.0005790480952320        0.1055000000000000
O        0.0051228049570704        0.1014433909860176       -0.2910728012414699       -0.3034110000000000
O        0.0040875483470342        0.1015473477738685        0.2910728012414699       -0.3034110000000000
N       -0.8967864874987307       -0.3935856037189815        0.0003422683055107        0.1979110000000000
N       -0.6368174835372797       -0.9201255098103192       -0.0011927013395219        0.1055000000000000

        RMSE         7.197976036E-01 kcal/mol
         MAE         4.920852881E-01 kcal/mol
     max. AE         4.653492008E+00 kcal/mol

Coordinates in bohr
s                   x[bohr]                   y[bohr]                   z[bohr]                      q[e]
local coordinates in angstrom
s                      x[a]                      y[a]                       z[a                      q[e]
x        0.4823604555695056        0.0008614589834508        0.1816892771439598        0.1979110000000000
x       -0.5582222285402167       -0.0010942423134566        0.5405949205232901        0.1055000000000000
x       -0.0364934322965382        0.5500478769161994        0.0553673012304898       -0.3034110000000000
x       -0.0378213125341063       -0.5500478769161994        0.0539172537601189       -0.3034110000000000
x       -0.5015556960415779       -0.0006467933588397        0.1855328037072468        0.1979110000000000
x        0.5473140022595544        0.0022538788811630        0.5478531799417397        0.1055000000000000
