6
s                      x[A]                      y[A]                      z[A]                      q[e]
N       -0.0004100564661926        1.1718322206125600       -0.2528661874420586        0.1979110000000000
N       -0.0003507490310734        1.0081709458986221       -0.7249473717638573        0.1055000000000000
O       -0.2911503449391907        0.0004236042650559        0.1522268181568085       -0.3034110000000000
O        0.2911503449391907       -0.0011151256524735        0.1523192704597849       -0.3034110000000000
N       -0.0010342899011001       -1.1704890971833248       -0.2481199129387556        0.1979110000000000
N        0.0019943227304736       -1.0124443534139136       -0.7277094962457283        0.1055000000000000

        RMSE         7.796826265E-01 kcal/mol
         MAE         5.261996989E-01 kcal/mol
     max. AE         4.704324184E+00 kcal/mol

Coordinates in bohr
s                   x[bohr]                   y[bohr]                   z[bohr]                      q[e]
local coordinates in angstrom
s                      x[a]                      y[a]                       z[a                      q[e]
x        0.5548539952310421        0.0007748944170771        0.3402148535424203        0.1979110000000000
x       -0.3698730443497880        0.0006628196074985        0.5309521841681999        0.1055000000000000
x        0.0799218351364743        0.5501944132676471       -0.0466640345681384       -0.3034110000000000
x        0.0785841254155457       -0.5501944132676471       -0.0492517419991430       -0.3034110000000000
x       -0.5612614631289716        0.0019545246474060        0.3334448979676381        0.1979110000000000
x        0.3702256763288005       -0.0037687237663704        0.5405613109051046        0.1055000000000000
