6
s                      x[A]                      y[A]                      z[A]                      q[e]
N        1.1561844848381910       -0.3410567588369675        0.0015469580723399        0.1979110000000000
N        0.9708303071021640       -0.7878659046773934       -0.0013031807414270        0.1055000000000000
O        0.0118436307056389        0.1726353328109861       -0.2910474658685001       -0.3034110000000000
O        0.0109404155416281        0.1726827308261784        0.2910474658685001       -0.3034110000000000
N       -1.1276846212932157       -0.0771104723748334        0.0002052520078739        0.1979110000000000
N       -1.0108941423107305       -0.5363793613076361        0.0016007206975492        0.1055000000000000

        RMSE         7.578489868E-01 kcal/mol
         MAE         5.133452424E-01 kcal/mol
     max. AE         4.562124682E+00 kcal/mol

Coordinates in bohr
s                   x[bohr]                   y[bohr]                   z[bohr]                      q[e]
local coordinates in angstrom
s                      x[a]                      y[a]                       z[a                      q[e]
x        0.5500000000000000       -0.0029233270842887        0.3611234164521915        0.1979110000000000
x       -0.3452289743678279        0.0024626546932681        0.5459879956598239        0.1055000000000000
x        0.1374519452360061        0.5500000000000000       -0.0663459479759832       -0.3034110000000000
x        0.1365666922546939       -0.5500000000000000       -0.0678080068140503       -0.3034110000000000
x       -0.5500000000000000       -0.0003878700815820        0.3659259450728933        0.1979110000000000
x        0.3342828404279779       -0.0030249237217199        0.5073136699008249        0.1055000000000000
