6
s                      x[A]                      y[A]                      z[A]                      q[e]
N        1.1268489588431383       -0.2826666172108912       -0.0001162477394472        0.1979110000000000
N        0.9357320284255420       -0.7301927969419858       -0.0001264519619481        0.1055000000000000
O        0.0072700154456312        0.1718951080020657       -0.2910403915576619       -0.3034110000000000
O        0.0061424704152027        0.1707050975648577        0.2910403915576619       -0.3034110000000000
N       -1.1126610837389936       -0.1541655351251242       -0.0011283032091003        0.1979110000000000
N       -0.9568795954777641       -0.6131609604318344        0.0013982264385041        0.1055000000000000

        RMSE         7.339672866E-01 kcal/mol
         MAE         4.922243233E-01 kcal/mol
     max. AE         4.536364368E+00 kcal/mol

Coordinates in bohr
s                   x[bohr]                   y[bohr]                   z[bohr]                      q[e]
local coordinates in angstrom
s                      x[a]                      y[a]                       z[a                      q[e]
x        0.5438661303428489        0.0002196763902589        0.3654383714892901        0.1979110000000000
x       -0.3635630971621140        0.0002389595761088        0.5145004356018035        0.1055000000000000
x        0.1333932054562865        0.5499866314899897       -0.0685479908556772       -0.3034110000000000
x        0.1303522181615335       -0.5499866314899897       -0.0691392361472936       -0.3034110000000000
x       -0.5421390936508033        0.0021321840516748        0.3667144237715547        0.1979110000000000
x        0.3641234761435044       -0.0026422650301470        0.4997212337657402        0.1055000000000000
