6
s                      x[A]                      y[A]                      z[A]                      q[e]
N        0.8829097467085930       -0.4083087771960595        0.0006074172866929        0.1979110000000000
N        0.6171168721803330       -0.9312062245471699       -0.0008988745524664        0.1055000000000000
O       -0.0037579852553940        0.0954380388053325       -0.2910474658685001       -0.3034110000000000
O       -0.0035933618633295        0.0963202726707866        0.2910474658685001       -0.3034110000000000
N       -0.8706349506796488       -0.4962562745807063        0.0003703538571306        0.1979110000000000
N       -0.5967216489905356       -0.9972445046823103       -0.0018939005763159        0.1055000000000000

        RMSE         7.272101054E-01 kcal/mol
         MAE         4.982308483E-01 kcal/mol
     max. AE         4.864818942E+00 kcal/mol

Coordinates in bohr
s                   x[bohr]                   y[bohr]                   z[bohr]                      q[e]
local coordinates in angstrom
s                      x[a]                      y[a]                       z[a                      q[e]
x        0.4952763833257849       -0.0011478523157183        0.1811030479082773        0.1979110000000000
x       -0.5500000000000000        0.0016986267253050        0.5500000000000000        0.1055000000000000
x       -0.0611045515522901        0.5500000000000000        0.0538343157820681       -0.3034110000000000
x       -0.0597292597227471       -0.5500000000000000        0.0528419238485287       -0.3034110000000000
x       -0.4606708280883793       -0.0006998673594837        0.1709089615086730        0.1979110000000000
x        0.5500000000000000        0.0035789533980838        0.5487645319068228        0.1055000000000000
