6
s                      x[A]                      y[A]                      z[A]                      q[e]
N        1.1050578354855205       -0.1673085075250049        0.0012063099691949        0.1979110000000000
N        0.9359514515235979       -0.6419872624900207       -0.0030817560914398        0.1055000000000000
O       -0.0056902949950393        0.1676746798863437       -0.2910594461049452       -0.3034110000000000
O       -0.0056837911304289        0.1669856165423425        0.2910594461049452       -0.3034110000000000
N       -1.1150831952451519       -0.2900396571562103       -0.0024879314831874        0.1979110000000000
N       -0.9196996269508074       -0.7549361564207101        0.0043808391140927        0.1055000000000000

        RMSE         7.261149283E-01 kcal/mol
         MAE         4.866716426E-01 kcal/mol
     max. AE         4.290857806E+00 kcal/mol

Coordinates in bohr
s                   x[bohr]                   y[bohr]                   z[bohr]                      q[e]
local coordinates in angstrom
s                      x[a]                      y[a]                       z[a                      q[e]
x        0.5488823087680430       -0.0022795954641879        0.3574551414130838        0.1979110000000000
x       -0.3926649537388585        0.0058236749982825        0.4997310218386701        0.1055000000000000
x        0.1148243334373547        0.5500226393657996       -0.0737737728800312       -0.3034110000000000
x        0.1136825767935079       -0.5500226393657996       -0.0731475828006296       -0.3034110000000000
x       -0.5495133662207081        0.0047015091221283        0.3486843551399943        0.1979110000000000
x        0.3873296123483669       -0.0082785861253285        0.5232108463205805        0.1055000000000000
