6
s                      x[A]                      y[A]                      z[A]                      q[e]
N       -0.0007298620107530        1.1412306804361059       -0.3012254413811599        0.1979110000000000
N        0.0006130791517146        0.9274566529790748       -0.7938929561686817        0.1055000000000000
O       -0.2911171013004406        0.0018337095823414        0.1325710928506378       -0.3034110000000000
O        0.2911171013004406        0.0008149920319362        0.1324583598074161       -0.3034110000000000
N       -0.0006909749900752       -1.1412170650669651       -0.3020240644788380        0.1979110000000000
N        0.0014916744190126       -0.9248195509466102       -0.7944490883230897        0.1055000000000000

        RMSE         7.713121917E-01 kcal/mol
         MAE         5.194224017E-01 kcal/mol
     max. AE         4.800582031E+00 kcal/mol

Coordinates in bohr
s                   x[bohr]                   y[bohr]                   z[bohr]                      q[e]
local coordinates in angstrom
s                      x[a]                      y[a]                       z[a                      q[e]
x        0.5495471953586275        0.0013792393096992        0.3202170067306724        0.1979110000000000
x       -0.4489134959230796       -0.0011585516899686        0.5019997397175757        0.1055000000000000
x        0.0339453429123751        0.5501315918949956       -0.0185341902420078       -0.3034110000000000
x        0.0326980379886663       -0.5501315918949956       -0.0200159504352087       -0.3034110000000000
x       -0.5482784210171303        0.0013057534907830        0.3210346219930216        0.1979110000000000
x        0.4525574999097444       -0.0028188561202853        0.4984416522966058        0.1055000000000000
