6
s                      x[A]                      y[A]                      z[A]                      q[e]
N        0.9628663391505778       -0.4229709790802353       -0.0008094828881905        0.1979110000000000
N        0.6765510012419169       -0.9501447390461847        0.0009975014179189        0.1055000000000000
O        0.0059382803363376        0.1201331563184210       -0.2910619273254368       -0.3034110000000000
O        0.0046597453566418        0.1198333863027528        0.2910619273254368       -0.3034110000000000
N       -0.9623355236644774       -0.3318752530166739        0.0006069209627438        0.1979110000000000
N       -0.6985183033838225       -0.8745090052248360       -0.0016712480592443        0.1055000000000000

        RMSE         7.002540598E-01 kcal/mol
         MAE         4.801886885E-01 kcal/mol
     max. AE         4.033876349E+00 kcal/mol

Coordinates in bohr
s                   x[bohr]                   y[bohr]                   z[bohr]                      q[e]
local coordinates in angstrom
s                      x[a]                      y[a]                       z[a                      q[e]
x        0.5317822661959326        0.0015297009619246        0.2145165450619970        0.1979110000000000
x       -0.5583691999663642       -0.0018850044896226        0.5255719528358895        0.1055000000000000
x       -0.0012930337998114        0.5500273281929857        0.0169825949815277       -0.3034110000000000
x       -0.0033889598425958       -0.5500273281929857        0.0156538946966975       -0.3034110000000000
x       -0.5427470936592727       -0.0011469143993850        0.2223969627466431        0.1979110000000000
x        0.5576151159493747        0.0031582011196747        0.5211484069077414        0.1055000000000000
