6
s                      x[A]                      y[A]                      z[A]                      q[e]
N        1.0118449275931738       -0.4289659226857416        0.0004412342912655        0.1979110000000000
N        0.7410920824514485       -0.9678043764789739       -0.0020179459862215        0.1055000000000000
O        0.0081153535570030        0.1083050923813197       -0.2910634399965982       -0.3034110000000000
O        0.0078179668850927        0.1082620033465451        0.2910634399965982       -0.3034110000000000
N       -1.0099022810586444       -0.3422325936079214       -0.0003599259220220        0.1979110000000000
N       -0.7518761772267564       -0.8935577036607776        0.0007421786815859        0.1055000000000000

        RMSE         7.269161464E-01 kcal/mol
         MAE         5.011969738E-01 kcal/mol
     max. AE         4.180085321E+00 kcal/mol

Coordinates in bohr
s                   x[bohr]                   y[bohr]                   z[bohr]                      q[e]
local coordinates in angstrom
s                      x[a]                      y[a]                       z[a                      q[e]
x        0.5448657359675053       -0.0008338119676523        0.2097932625401882        0.1979110000000000
x       -0.5464982382445669        0.0038133652499255        0.5377515258769563        0.1055000000000000
x       -0.0208437600113029        0.5500301867271986        0.0408221651046006       -0.3034110000000000
x       -0.0212890764578333       -0.5500301867271986        0.0404698238808123       -0.3034110000000000
x       -0.5466124648328332        0.0006801614180745        0.2233461084615556        0.1979110000000000
x        0.5641582386133450       -0.0014025144443508        0.5223436794512963        0.1055000000000000
