6
s                      x[A]                      y[A]                      z[A]                      q[e]
N       -0.0000340883727290        1.0869872635479867       -0.2377362511359877        0.1979110000000000
N       -0.0006854746542788        0.8702764155908592       -0.7076918284742368        0.1055000000000000
O       -0.2910199071631422        0.0011216538071937        0.1663053875153084       -0.3034110000000000
O        0.2910199071631422        0.0000710627521118        0.1650360396580944       -0.3034110000000000
N       -0.0018620567051316       -1.0864601011343513       -0.2378109997987883        0.1979110000000000
N        0.0032948126024427       -0.8700833332124814       -0.7088103649615622        0.1055000000000000

        RMSE         7.049461488E-01 kcal/mol
         MAE         4.701122480E-01 kcal/mol
     max. AE         4.354902131E+00 kcal/mol

Coordinates in bohr
s                   x[bohr]                   y[bohr]                   z[bohr]                      q[e]
local coordinates in angstrom
s                      x[a]                      y[a]                       z[a                      q[e]
x        0.5459447800026282        0.0000644176885203        0.3603185503343411        0.1979110000000000
x       -0.4246875053377153        0.0012953593625298        0.4798263188895362        0.1055000000000000
x        0.1144907351094844        0.5499479215945016       -0.0684248268448755       -0.3034110000000000
x        0.1114060848094596       -0.5499479215945016       -0.0688494701394120       -0.3034110000000000
x       -0.5453001163114095        0.0035187772027712        0.3595460471133265        0.1979110000000000
x        0.4266765692746048       -0.0062262934533237        0.4806291895438335        0.1055000000000000
