6
s                      x[A]                      y[A]                      z[A]                      q[e]
N        1.0274296509514149       -0.3330382616365161       -0.0001443549521365        0.1979110000000000
N        0.7728492169677609       -0.8723510667816397       -0.0017164727635918        0.1055000000000000
O       -0.0063150096879265        0.1113309549287200       -0.2914404347495088       -0.3034110000000000
O       -0.0078062236572162        0.1116962061281898        0.2914404347495088       -0.3034110000000000
N       -1.0332156231433600       -0.4184888610328251       -0.0000383962734723        0.1979110000000000
N       -0.7555982447661015       -0.9553875894175617        0.0002592103182186        0.1055000000000000

        RMSE         7.247709939E-01 kcal/mol
         MAE         4.939871474E-01 kcal/mol
     max. AE         4.258715461E+00 kcal/mol

Coordinates in bohr
s                   x[bohr]                   y[bohr]                   z[bohr]                      q[e]
local coordinates in angstrom
s                      x[a]                      y[a]                       z[a                      q[e]
x        0.5470730594156521        0.0002727913243916        0.2447760692180054        0.1979110000000000
x       -0.5473059436351377        0.0032436634249962        0.5139478303062788        0.1055000000000000
x       -0.0328301404238118        0.5507426035609342        0.0112937285273915       -0.3034110000000000
x       -0.0340711601834300       -0.5507426035609342        0.0086712630432260       -0.3034110000000000
x       -0.5554735835410156        0.0000725584411008        0.2315982814579911        0.1979110000000000
x        0.5471861272242222       -0.0004898365103259        0.5295321338935537        0.1055000000000000
