6
s                      x[A]                      y[A]                      z[A]                      q[e]
N        0.0001920393430964        1.0796732118615155       -0.2986185425045892        0.1979110000000000
N       -0.0014969844901955        0.8506558062917093       -0.8128630160971516        0.1055000000000000
O       -0.2916906715135886        0.0039785997028403        0.1423403113719246       -0.3034110000000000
O        0.2916906715135886        0.0032493678100528        0.1419261412264480       -0.3034110000000000
N       -0.0009617021385956       -1.0778302276361911       -0.2982806015187985        0.1979110000000000
N        0.0012246276334750       -0.8527615606178125       -0.8157977440600881        0.1055000000000000

        RMSE         7.169868753E-01 kcal/mol
         MAE         4.816076855E-01 kcal/mol
     max. AE         4.496351940E+00 kcal/mol

Coordinates in bohr
s                   x[bohr]                   y[bohr]                   z[bohr]                      q[e]
local coordinates in angstrom
s                      x[a]                      y[a]                       z[a                      q[e]
x        0.5630156866122888       -0.0003629017637650        0.2968434295271436        0.1979110000000000
x       -0.4784138361617352        0.0028288907005276        0.5138272111835249        0.1055000000000000
x        0.0507177550723554        0.5512154825115658       -0.0272781792715335       -0.3034110000000000
x        0.0492771494657518       -0.5512154825115658       -0.0279386660179171       -0.3034110000000000
x       -0.5614977888403700        0.0018173536562127        0.2936444823917554        0.1979110000000000
x        0.4805869642896141       -0.0023142108329353        0.5202978052902836        0.1055000000000000
