6
s                      x[A]                      y[A]                      z[A]                      q[e]
N       -0.0005511452236266        1.1622868798984229       -0.2715369680874900        0.1979110000000000
N        0.0005936515985529        0.9784440000070267       -0.7493700412026091        0.1055000000000000
O       -0.2911035807127637        0.0019653927534341        0.1433772913502406       -0.3034110000000000
O        0.2911035807127637        0.0008491477078222        0.1434192090028341       -0.3034110000000000
N       -0.0007523705252551       -1.1627582936401384       -0.2720620685915318        0.1979110000000000
N        0.0017941160624698       -0.9750617960895659       -0.7497037960030584        0.1055000000000000

        RMSE         7.798464045E-01 kcal/mol
         MAE         5.253211087E-01 kcal/mol
     max. AE         4.843126091E+00 kcal/mol

Coordinates in bohr
s                   x[bohr]                   y[bohr]                   z[bohr]                      q[e]
local coordinates in angstrom
s                      x[a]                      y[a]                       z[a                      q[e]
x        0.5496553665275314        0.0010415135280084        0.3364299245367874        0.1979110000000000
x       -0.4009251618053895       -0.0011218389352052        0.5165788529448037        0.1055000000000000
x        0.0615772502983418        0.5501060416872310       -0.0337734798190468       -0.3034110000000000
x        0.0605338141112952       -0.5501060416872310       -0.0356084384293354       -0.3034110000000000
x       -0.5492808976150627        0.0014217742375990        0.3377097783068166        0.1979110000000000
x        0.4048269738441377       -0.0033903879953527        0.5114774663052231        0.1055000000000000
