6
s                      x[A]                      y[A]                      z[A]                      q[e]
N        1.0304497497430292       -0.3849529787798744        0.0002557975006975        0.1979110000000000
N        0.7312528695119860       -0.8947899020852714       -0.0010855197972350        0.1055000000000000
O        0.0071661214533386        0.1301225207028506       -0.2910474658685001       -0.3034110000000000
O        0.0066003869014078        0.1297712491827127        0.2910474658685001       -0.3034110000000000
N       -1.0248165137645953       -0.2876750521655284       -0.0002542116120369        0.1979110000000000
N       -0.7519310115425200       -0.8106226587385535       -0.0000726539470787        0.1055000000000000

        RMSE         6.951228328E-01 kcal/mol
         MAE         4.719144908E-01 kcal/mol
     max. AE         4.273360707E+00 kcal/mol

Coordinates in bohr
s                   x[bohr]                   y[bohr]                   z[bohr]                      q[e]
local coordinates in angstrom
s                      x[a]                      y[a]                       z[a                      q[e]
x        0.5500000000000000       -0.0004833872198949        0.2828153382604910        0.1979110000000000
x       -0.5491804277571783        0.0020513351205367        0.4821135620569954        0.1055000000000000
x        0.0275597894899541        0.5500000000000000       -0.0058334506629072       -0.3034110000000000
x        0.0263594964255265       -0.5500000000000000       -0.0062114394034351       -0.3034110000000000
x       -0.5500000000000000        0.0004803903246609        0.2904612237909032        0.1979110000000000
x        0.5500000000000000        0.0001372960619122        0.4707908777217953        0.1055000000000000
