6
s                      x[A]                      y[A]                      z[A]                      q[e]
N        1.0322241073556804       -0.2459697255801377       -0.0002938134209476        0.1979110000000000
N        0.7899395379585531       -0.7858753182461450       -0.0007534731571581        0.1055000000000000
O       -0.0143397053309127        0.1268513201042240       -0.2910365315298870       -0.3034110000000000
O       -0.0153427089818686        0.1267433161081954        0.2910365315298870       -0.3034110000000000
N       -1.0410932453482395       -0.4351612944980922       -0.0003618429316532        0.1979110000000000
N       -0.7609474460684362       -0.9514573066523666        0.0011918293097766        0.1055000000000000

        RMSE         7.093486715E-01 kcal/mol
         MAE         4.853446606E-01 kcal/mol
     max. AE         4.137744708E+00 kcal/mol

Coordinates in bohr
s                   x[bohr]                   y[bohr]                   z[bohr]                      q[e]
local coordinates in angstrom
s                      x[a]                      y[a]                       z[a                      q[e]
x        0.5538859555499585        0.0005552268975748        0.2765769925008499        0.1979110000000000
x       -0.5442600155438413        0.0014238579099128        0.4879104611973162        0.1055000000000000
x       -0.0055418316205760        0.5499793370946584       -0.0292162831979113       -0.3034110000000000
x       -0.0067977166390847       -0.5499793370946584       -0.0306504931945710       -0.3034110000000000
x       -0.5547147239713013        0.0006837840412572        0.2531191145590128        0.1979110000000000
x        0.5223263939606113       -0.0022522309837711        0.5217344768498151        0.1055000000000000
