6
s                      x[A]                      y[A]                      z[A]                      q[e]
N        1.0568892622971033       -0.2406602125507620        0.0004755851962085        0.1979110000000000
N        0.8255905627323173       -0.7553281718617028       -0.0024974406751398        0.1055000000000000
O       -0.0052359751253635        0.1453759229216136       -0.2910650515749487       -0.3034110000000000
O       -0.0058136409573027        0.1446095124927954        0.2910650515749487       -0.3034110000000000
N       -1.0640455679820162       -0.3462031162268804       -0.0013852502719651        0.1979110000000000
N       -0.8050675873317658       -0.8490724611250521        0.0030741622563296        0.1055000000000000

        RMSE         7.026582800E-01 kcal/mol
         MAE         4.746680903E-01 kcal/mol
     max. AE         4.262965370E+00 kcal/mol

Coordinates in bohr
s                   x[bohr]                   y[bohr]                   z[bohr]                      q[e]
local coordinates in angstrom
s                      x[a]                      y[a]                       z[a                      q[e]
x        0.5561348812666438       -0.0008987257701563        0.3112662867242761        0.1979110000000000
x       -0.4956863800989595        0.0047194788905927        0.4862962820116081        0.1055000000000000
x        0.0513019876407270        0.5500332321689108       -0.0460323583370155       -0.3034110000000000
x        0.0494914751043325       -0.5500332321689108       -0.0461386155734544       -0.3034110000000000
x       -0.5560709003602824        0.0026177436292301        0.3031224246788042        0.1979110000000000
x        0.4944055338082762       -0.0058093247296824        0.5007365845594904        0.1055000000000000
