6
s                      x[A]                      y[A]                      z[A]                      q[e]
N       -0.0030505449099550        1.0924589074398043       -0.2188200835439254        0.1979110000000000
N        0.0043420948343882        0.9012521336368259       -0.6878123722461764        0.1055000000000000
O       -0.2910474658685001        0.0013577518063524        0.1743173653843494       -0.3034110000000000
O        0.2910474658685001       -0.0011098743011850        0.1719773830020727       -0.3034110000000000
N       -0.0010748077730678       -1.0913224508225370       -0.2181432911148563        0.1979110000000000
N        0.0030996045750700       -0.9026299664926796       -0.6890032416948166        0.1055000000000000

        RMSE         7.041268276E-01 kcal/mol
         MAE         4.709325887E-01 kcal/mol
     max. AE         4.231491960E+00 kcal/mol

Coordinates in bohr
s                   x[bohr]                   y[bohr]                   z[bohr]                      q[e]
local coordinates in angstrom
s                      x[a]                      y[a]                       z[a                      q[e]
x        0.5500000000000000        0.0057646944132244        0.3575007856139810        0.1979110000000000
x       -0.3963459178474687       -0.0082053700477589        0.5005280669467853        0.1055000000000000
x        0.1333066269932498        0.5500000000000000       -0.0764016097593154       -0.3034110000000000
x        0.1271214038166339       -0.5500000000000000       -0.0781455403654010       -0.3034110000000000
x       -0.5500000000000000        0.0020310923286114        0.3550012117617929        0.1979110000000000
x        0.3969471942772411       -0.0058574037440984        0.5039166118820818        0.1055000000000000
