6
s                      x[A]                      y[A]                      z[A]                      q[e]
N        1.0999625234315642       -0.3655916713718838        0.0001083195755941        0.1979110000000000
N        0.8556886119796728       -0.8704657543818214       -0.0014768843443003        0.1055000000000000
O        0.0083483284690590        0.1319919573993150       -0.2911107046106288       -0.3034110000000000
O        0.0080165197910455        0.1315430159613873        0.2911107046106288       -0.3034110000000000
N       -1.0934612926361673       -0.2634491066444838       -0.0007565439773962        0.1979110000000000
N       -0.8660358408868115       -0.7818712413795077        0.0017186765593014        0.1055000000000000

        RMSE         7.383678717E-01 kcal/mol
         MAE         4.999563088E-01 kcal/mol
     max. AE         4.560937477E+00 kcal/mol

Coordinates in bohr
s                   x[bohr]                   y[bohr]                   z[bohr]                      q[e]
local coordinates in angstrom
s                      x[a]                      y[a]                       z[a                      q[e]
x        0.5560005312577232       -0.0002046943318987        0.2925334440969891        0.1979110000000000
x       -0.4808116968852119        0.0027909069297039        0.5124462392413989        0.1055000000000000
x        0.0348606040438426        0.5501195039031419       -0.0070709291276216       -0.3034110000000000
x        0.0338059432133377       -0.5501195039031419       -0.0070465056160174       -0.3034110000000000
x       -0.5533763289240596        0.0014296609191433        0.3032515288723516        0.1979110000000000
x        0.4999445101193487       -0.0032478279953239        0.4902910980054003        0.1055000000000000
