6
s                      x[A]                      y[A]                      z[A]                      q[e]
N        1.0723690792983069       -0.1820649479491344        0.0008819985704502        0.1979110000000000
N        0.8864650684306415       -0.6993486518100002       -0.0042604469035992        0.1055000000000000
O       -0.0149234191355112        0.1466358691785880       -0.2909487798585990       -0.3034110000000000
O       -0.0160799064769618        0.1463741344367893        0.2909487798585990       -0.3034110000000000
N       -1.0955080581470376       -0.3849464999539911       -0.0012329254618923        0.1979110000000000
N       -0.8496113599705222       -0.9006801448602699        0.0026329088838732        0.1055000000000000

        RMSE         7.205745246E-01 kcal/mol
         MAE         4.868687620E-01 kcal/mol
     max. AE         4.165729724E+00 kcal/mol

Coordinates in bohr
s                   x[bohr]                   y[bohr]                   z[bohr]                      q[e]
local coordinates in angstrom
s                      x[a]                      y[a]                       z[a                      q[e]
x        0.5527763202944698       -0.0016667357411961        0.3083369763662631        0.1979110000000000
x       -0.4678537527111075        0.0080510778198573        0.5014316062170110        0.1055000000000000
x        0.0458437849690654        0.5498135104688728       -0.0597071556531006       -0.3034110000000000
x        0.0443089635227807       -0.5498135104688728       -0.0613396770673944       -0.3034110000000000
x       -0.5790361268449260        0.0023298914560801        0.2896826276983120        0.1979110000000000
x        0.4704928799408208       -0.0049754767038053        0.5431585543437905        0.1055000000000000
