6
s                      x[A]                      y[A]                      z[A]                      q[e]
N        0.0002287797978118        1.0092964924283785       -0.3235916987331653        0.1979110000000000
N       -0.0003635330174852        0.7242017276400913       -0.8412219702965226        0.1055000000000000
O       -0.2910474658685001        0.0001104946181016        0.1375739662298813       -0.3034110000000000
O        0.2910474658685001       -0.0000366699979397        0.1372359825509211       -0.3034110000000000
N       -0.0002979659130377       -1.0090857804078635       -0.3234224333129612        0.1979110000000000
N       -0.0005165867313571       -0.7240549435012471       -0.8411040582814415        0.1055000000000000

        RMSE         6.792438003E-01 kcal/mol
         MAE         4.597416531E-01 kcal/mol
     max. AE         4.167908809E+00 kcal/mol

Coordinates in bohr
s                   x[bohr]                   y[bohr]                   z[bohr]                      q[e]
local coordinates in angstrom
s                      x[a]                      y[a]                       z[a                      q[e]
x        0.5500000000000000       -0.0004323311609019        0.2868903597823754        0.1979110000000000
x       -0.5500000000000000        0.0006869778406084        0.4794720274543202        0.1055000000000000
x        0.0350753818383993        0.5500000000000000       -0.0279082982371115       -0.3034110000000000
x        0.0344032822755910       -0.5500000000000000       -0.0277251164278610       -0.3034110000000000
x       -0.5500000000000000        0.0005630739703632        0.2863796078924788        0.1979110000000000
x        0.5500000000000000        0.0009762074423104        0.4791162324876247        0.1055000000000000
