6
s                      x[A]                      y[A]                      z[A]                      q[e]
N       -0.0002181150854460        1.0805110976135015       -0.3077116784270693        0.1979110000000000
N       -0.0008529201346371        0.8374820016668236       -0.8075071049110516        0.1055000000000000
O       -0.2910474658685001        0.0013860038507999        0.1368626236759297       -0.3034110000000000
O        0.2910474658685001       -0.0005060665946738        0.1378646702206364       -0.3034110000000000
N        0.0014642218543557       -1.0803822316339162       -0.3076188228702464        0.1979110000000000
N       -0.0029216933553509       -0.8351433171680691       -0.8098438648019933        0.1055000000000000

        RMSE         7.230995702E-01 kcal/mol
         MAE         4.905815806E-01 kcal/mol
     max. AE         4.455892731E+00 kcal/mol

Coordinates in bohr
s                   x[bohr]                   y[bohr]                   z[bohr]                      q[e]
local coordinates in angstrom
s                      x[a]                      y[a]                       z[a                      q[e]
x        0.5500000000000000        0.0004121777753238        0.3081736062373706        0.1979110000000000
x       -0.4847559421854396        0.0016117854613527        0.4877126237660404        0.1055000000000000
x        0.0394553774668670        0.5500000000000000       -0.0252016493627732       -0.3034110000000000
x        0.0389014395889410       -0.5500000000000000       -0.0292095183043734       -0.3034110000000000
x       -0.5500000000000000       -0.0027669782916423        0.3078734513627635        0.1979110000000000
x        0.4909222340500484        0.0055212002641831        0.4867085334059219        0.1055000000000000
