6
s                      x[A]                      y[A]                      z[A]                      q[e]
N        0.9238712141271075       -0.5145987367188709        0.0002048755170772        0.1979110000000000
N        0.6374794403874794       -1.0324341482769985       -0.0006421069580830        0.1055000000000000
O        0.0129093014041256        0.0993679955336649       -0.2910455923401615       -0.3034110000000000
O        0.0126450682676525        0.0998322504124926        0.2910455923401615       -0.3034110000000000
N       -0.9280619402948664       -0.3451411518348157       -0.0002925177792932        0.1979110000000000
N       -0.6789137166840676       -0.8943579014976066        0.0001624458597020        0.1055000000000000

        RMSE         7.293490731E-01 kcal/mol
         MAE         5.008143158E-01 kcal/mol
     max. AE         4.615130497E+00 kcal/mol

Coordinates in bohr
s                   x[bohr]                   y[bohr]                   z[bohr]                      q[e]
local coordinates in angstrom
s                      x[a]                      y[a]                       z[a                      q[e]
x        0.4974164775599093       -0.0003871586170874        0.1716599651917932        0.1979110000000000
x       -0.5551566818330684        0.0012134062940277        0.5492615383409429        0.1055000000000000
x       -0.0294087227935051        0.5499964595445519        0.0703991927030074       -0.3034110000000000
x       -0.0292044768148116       -0.5499964595445519        0.0694106113187445       -0.3034110000000000
x       -0.5245461320928371        0.0005527784896913        0.1882506428628403        0.1979110000000000
x        0.5564252501944793       -0.0003069781850513        0.5492862355131365        0.1055000000000000
