6
s                      x[A]                      y[A]                      z[A]                      q[e]
N        1.0483141514176098       -0.4451587219843339       -0.0011577584298027        0.1979110000000000
N        0.7389477452489226       -0.9479257028661178        0.0015179440269954        0.1055000000000000
O        0.0140122289595086        0.1230686638041723       -0.2910474658685001       -0.3034110000000000
O        0.0130132009222868        0.1225418511074276        0.2910474658685001       -0.3034110000000000
N       -1.0367656078161345       -0.2516692264872942        0.0004193441652990        0.1979110000000000
N       -0.7803915440820339       -0.7828853159471023       -0.0013420222304193        0.1055000000000000

        RMSE         7.127598517E-01 kcal/mol
         MAE         4.851267795E-01 kcal/mol
     max. AE         4.332339223E+00 kcal/mol

Coordinates in bohr
s                   x[bohr]                   y[bohr]                   z[bohr]                      q[e]
local coordinates in angstrom
s                      x[a]                      y[a]                       z[a                      q[e]
x        0.5500000000000000        0.0021878463517671        0.2759422338346881        0.1979110000000000
x       -0.5454855184413544       -0.0028684984847958        0.4865699713536463        0.1055000000000000
x        0.0216453436625718        0.5500000000000000        0.0160820277506867       -0.3034110000000000
x        0.0196360653529786       -0.5500000000000000        0.0153622983630972       -0.3034110000000000
x       -0.5500000000000000       -0.0007924456247238        0.2897889926985352        0.1979110000000000
x        0.5500000000000000        0.0025360544697686        0.4698957026272840        0.1055000000000000
