6
s                      x[A]                      y[A]                      z[A]                      q[e]
N        0.0005045063287295        1.1134808387504898       -0.2601908644751971        0.1979110000000000
N       -0.0017937738964702        0.9156113804960591       -0.7500703456272964        0.1055000000000000
O       -0.2916580402207617        0.0050957151158009        0.1553120041693896       -0.3034110000000000
O        0.2916580402207617        0.0044752653729364        0.1547457172014239       -0.3034110000000000
N       -0.0015744103566718       -1.1112754743191704       -0.2623970025789556        0.1979110000000000
N        0.0023821470801214       -0.9165300990898789       -0.7526197984033517        0.1055000000000000

        RMSE         7.342030515E-01 kcal/mol
         MAE         4.898011159E-01 kcal/mol
     max. AE         4.620775015E+00 kcal/mol

Coordinates in bohr
s                   x[bohr]                   y[bohr]                   z[bohr]                      q[e]
local coordinates in angstrom
s                      x[a]                      y[a]                       z[a                      q[e]
x        0.5606897366496923       -0.0009533787898590        0.3293354742359043        0.1979110000000000
x       -0.4200913385693639        0.0033897413953241        0.5160837239000102        0.1055000000000000
x        0.0870130015871382        0.5511538183050035       -0.0445696021490818       -0.3034110000000000
x        0.0854785234073461       -0.5511538183050035       -0.0449761223389942       -0.3034110000000000
x       -0.5549283727932561        0.0029752043831941        0.3280882504855072        0.1979110000000000
x        0.4232022935589157       -0.0045016055719884        0.5201515216112966        0.1055000000000000
