6
s                      x[A]                      y[A]                      z[A]                      q[e]
N        1.1144375878722994       -0.3816363101912302       -0.0018779421101389        0.1979110000000000
N        0.8892905537919735       -0.8509731297600273        0.0027391210728092        0.1055000000000000
O        0.0136249463120865        0.1540124420390202       -0.2910474658685001       -0.3034110000000000
O        0.0120796999474309        0.1524157987626421        0.2910474658685001       -0.3034110000000000
N       -1.0956328968276488       -0.1518805530408660       -0.0009492387584983        0.1979110000000000
N       -0.9210321781393820       -0.6461786546241896        0.0023789993869125        0.1055000000000000

        RMSE         7.392611472E-01 kcal/mol
         MAE         4.991955342E-01 kcal/mol
     max. AE         4.521799854E+00 kcal/mol

Coordinates in bohr
s                   x[bohr]                   y[bohr]                   z[bohr]                      q[e]
local coordinates in angstrom
s                      x[a]                      y[a]                       z[a                      q[e]
x        0.5500000000000000        0.0035487962676268        0.3238392046526818        0.1979110000000000
x       -0.4129822686990978       -0.0051761886520797        0.5246134353873220        0.1055000000000000
x        0.0904615523764790        0.5500000000000000       -0.0367621585397466       -0.3034110000000000
x        0.0862909967243209       -0.5500000000000000       -0.0372489982234993       -0.3034110000000000
x       -0.5500000000000000        0.0017938012812314        0.3361061462583713        0.1979110000000000
x        0.4292752956630933       -0.0044956572938967        0.4857915958481969        0.1055000000000000
