6
s                      x[A]                      y[A]                      z[A]                      q[e]
N        0.0000004661132977        1.1875084433386176       -0.2229726326955857        0.1979110000000000
N       -0.0001857911572445        1.0585854643065540       -0.6760242983126549        0.1055000000000000
O       -0.2910474658685001        0.0007093786772938        0.1617409291752976       -0.3034110000000000
O        0.2910474658685001       -0.0003490637297790        0.1620165788403958       -0.3034110000000000
N       -0.0012242589432845       -1.1868760757028129       -0.2226253451579484        0.1979110000000000
N        0.0026527405878632       -1.0582513731559391       -0.6766315376478039        0.1055000000000000

        RMSE         7.979638865E-01 kcal/mol
         MAE         5.425012998E-01 kcal/mol
     max. AE         4.721050790E+00 kcal/mol

Coordinates in bohr
s                   x[bohr]                   y[bohr]                   z[bohr]                      q[e]
local coordinates in angstrom
s                      x[a]                      y[a]                       z[a                      q[e]
x        0.5500000000000000       -0.0000008808264760        0.3514224027742470        0.1979110000000000
x       -0.3177003497865103        0.0003510944037239        0.5500000000000000        0.1055000000000000
x        0.1076479067910082        0.5500000000000000       -0.0575893533931428       -0.3034110000000000
x        0.1071416645921974       -0.5500000000000000       -0.0595932803435011       -0.3034110000000000
x       -0.5500000000000000        0.0023135141094501        0.3500590502243553        0.1979110000000000
x        0.3190100761807997       -0.0050129531929474        0.5499990000000000        0.1055000000000000
