6
s                      x[A]                      y[A]                      z[A]                      q[e]
N        0.9953803074125632       -0.3595903741156569       -0.0005015427740623        0.1979110000000000
N        0.7333157126810415       -0.9049206229611512        0.0000106813883551        0.1055000000000000
O       -0.0076177932920632        0.1031201524370767       -0.2910390036448413       -0.3034110000000000
O       -0.0094424665258485        0.1032948593286331        0.2910390036448413       -0.3034110000000000
N       -0.9976746987283942       -0.4457573985147045        0.0009245246206973        0.1979110000000000
N       -0.7168412175586416       -0.9758554777055639       -0.0011992133518343        0.1055000000000000

        RMSE         7.302492766E-01 kcal/mol
         MAE         5.029497844E-01 kcal/mol
     max. AE         4.079940738E+00 kcal/mol

Coordinates in bohr
s                   x[bohr]                   y[bohr]                   z[bohr]                      q[e]
local coordinates in angstrom
s                      x[a]                      y[a]                       z[a                      q[e]
x        0.5376726363110720        0.0009477784831802        0.2170447410117049        0.1979110000000000
x       -0.5639018483025211       -0.0000201848986308        0.5232605424025678        0.1055000000000000
x       -0.0529634106155754        0.5499840087148726        0.0272362016366969       -0.3034110000000000
x       -0.0549863494761667       -0.5499840087148726        0.0244243810225271       -0.3034110000000000
x       -0.5348177585483427       -0.0017470983293606        0.2069152670464973        0.1979110000000000
x        0.5525001240484926        0.0022661848009591        0.5276394242428069        0.1055000000000000
