6
s                      x[A]                      y[A]                      z[A]                      q[e]
N       -0.0000250205555348        1.0137659555758300       -0.4135461807109474        0.1979110000000000
N       -0.0008259603429759        0.7482279340506265       -0.9573569892775966        0.1055000000000000
O       -0.2910356211216786        0.0000887615718456        0.0941653587015188       -0.3034110000000000
O        0.2910356211216786       -0.0009081074502443        0.0947360485697736       -0.3034110000000000
N       -0.0000311652371835       -1.0134914651859561       -0.4126656579507519        0.1979110000000000
N       -0.0000882850801726       -0.7468597381306501       -0.9570712034484075        0.1055000000000000

        RMSE         7.462610674E-01 kcal/mol
         MAE         5.141163220E-01 kcal/mol
     max. AE         4.293545079E+00 kcal/mol

Coordinates in bohr
s                   x[bohr]                   y[bohr]                   z[bohr]                      q[e]
local coordinates in angstrom
s                      x[a]                      y[a]                       z[a                      q[e]
x        0.5372867726455297        0.0000472819974675        0.2060747477898985        0.1979110000000000
x       -0.5578169098525905        0.0015608388387136        0.5356456509762211        0.1055000000000000
x       -0.0593673725488770        0.5499776166724821        0.0551551879375438       -0.3034110000000000
x       -0.0598550980876098       -0.5499776166724821        0.0530400257898691       -0.3034110000000000
x       -0.5381558855597177        0.0000588937629118        0.2045639785501407        0.1979110000000000
x        0.5591763716456626        0.0001668346224903        0.5333810503652785        0.1055000000000000
