6
s                      x[A]                      y[A]                      z[A]                      q[e]
N        0.9802991687466512       -0.4828499742884869       -0.0001446422484662        0.1979110000000000
N        0.6773218801168450       -1.0031397072036337       -0.0005110926553773        0.1055000000000000
O        0.0126497455944504        0.1091923632496118       -0.2910331202658579       -0.3034110000000000
O        0.0121710329900126        0.1090513896199818        0.2910331202658579       -0.3034110000000000
N       -0.9767552506596583       -0.3038456813126332       -0.0001471531243115        0.1979110000000000
N       -0.7205887407151361       -0.8542100155692884       -0.0000187765134027        0.1055000000000000

        RMSE         7.131895753E-01 kcal/mol
         MAE         4.900522335E-01 kcal/mol
     max. AE         4.120797015E+00 kcal/mol

Coordinates in bohr
s                   x[bohr]                   y[bohr]                   z[bohr]                      q[e]
local coordinates in angstrom
s                      x[a]                      y[a]                       z[a                      q[e]
x        0.5274845792314409        0.0002733342357715        0.2138244603047497        0.1979110000000000
x       -0.5673588701311019        0.0009658251433962        0.5233674073624570        0.1055000000000000
x       -0.0107255476693808        0.5499728907399017        0.0455189543906727       -0.3034110000000000
x       -0.0115613489783755       -0.5499728907399017        0.0450821801521784       -0.3034110000000000
x       -0.5424692617268647        0.0002780791034542        0.2280775365811678        0.1979110000000000
x        0.5677151751783640        0.0000354824679221        0.5170535152883531        0.1055000000000000
