6
s                      x[A]                      y[A]                      z[A]                      q[e]
N       -0.0004638696842878        1.0527686369710623       -0.2690149001165119        0.1979110000000000
N        0.0002900438510700        0.8161648673583484       -0.7708619629010328        0.1055000000000000
O       -0.2910311222433975        0.0006049219581940        0.1574024052348146       -0.3034110000000000
O        0.2910311222433975       -0.0003912226495688        0.1563238775823489       -0.3034110000000000
N       -0.0012799951777659       -1.0521513082695344       -0.2682355422090443        0.1979110000000000
N        0.0020797795678711       -0.8177859684917589       -0.7715258085619049        0.1055000000000000

        RMSE         6.863505884E-01 kcal/mol
         MAE         4.616383864E-01 kcal/mol
     max. AE         4.208442500E+00 kcal/mol

Coordinates in bohr
s                   x[bohr]                   y[bohr]                   z[bohr]                      q[e]
local coordinates in angstrom
s                      x[a]                      y[a]                       z[a                      q[e]
x        0.5561696948284407        0.0008765866612066        0.3180724580693095        0.1979110000000000
x       -0.4778212640651418       -0.0005481034428954        0.4917102313029318        0.1055000000000000
x        0.0840242698914153        0.5499691150246591       -0.0569523276063961       -0.3034110000000000
x        0.0812765006139671       -0.5499691150246591       -0.0573361074936258       -0.3034110000000000
x       -0.5567140617466748        0.0024188403278842        0.3162742258996332        0.1979110000000000
x        0.4771044498090760       -0.0039302137845993        0.4949420358962016        0.1055000000000000
