6
s                      x[A]                      y[A]                      z[A]                      q[e]
N        0.9117592694502741       -0.3623282581091585       -0.0009639262523627        0.1979110000000000
N        0.6642843171160359       -0.9045050125433306        0.0011870625621497        0.1055000000000000
O       -0.0110708314643880        0.0940727649051883       -0.2910495556131129       -0.3034110000000000
O       -0.0125487680781882        0.0944977203354039        0.2910495556131129       -0.3034110000000000
N       -0.9044456992830839       -0.5318918479887781        0.0009173945102357        0.1979110000000000
N       -0.6192969696370900       -1.0389631152836565       -0.0013757618903663        0.1055000000000000

        RMSE         7.362457689E-01 kcal/mol
         MAE         5.042100127E-01 kcal/mol
     max. AE         4.814481658E+00 kcal/mol

Coordinates in bohr
s                   x[bohr]                   y[bohr]                   z[bohr]                      q[e]
local coordinates in angstrom
s                      x[a]                      y[a]                       z[a                      q[e]
x        0.5131277901541580        0.0018215566221045        0.1812329285712622        0.1979110000000000
x       -0.5489460711760330       -0.0022432231362473        0.5559855157771381        0.1055000000000000
x       -0.0768884895073825        0.5500039490449904        0.0451029803002712       -0.3034110000000000
x       -0.0782495686435141       -0.5500039490449904        0.0425353711443677       -0.3034110000000000
x       -0.4780558851462047       -0.0017336243733439        0.1679796236203401        0.1979110000000000
x        0.5534763949035550        0.0025998131866345        0.5481117582166917        0.1055000000000000
