6
s                      x[A]                      y[A]                      z[A]                      q[e]
N       -0.0006332410337567        0.9750142687107455       -0.3395476580342523        0.1979110000000000
N        0.0011186305680624        0.7055970374719404       -0.8752103394704176        0.1055000000000000
O       -0.2910834673301623       -0.0005999294807274        0.1347663786013954       -0.3034110000000000
O        0.2910834673301623       -0.0009349679852649        0.1343749557843180       -0.3034110000000000
N       -0.0000684786649381       -0.9747376587357051       -0.3378869583084763        0.1979110000000000
N       -0.0006441723593526       -0.7071335883507667       -0.8760472097964045        0.1055000000000000

        RMSE         6.795756905E-01 kcal/mol
         MAE         4.627442848E-01 kcal/mol
     max. AE         4.009483506E+00 kcal/mol

Coordinates in bohr
s                   x[bohr]                   y[bohr]                   z[bohr]                      q[e]
local coordinates in angstrom
s                      x[a]                      y[a]                       z[a                      q[e]
x        0.5475034225819400        0.0011966521252020        0.2431263805788149        0.1979110000000000
x       -0.5515621119984644       -0.0021139054092032        0.5186707938100881        0.1055000000000000
x        0.0222055885039936        0.5500680329026579       -0.0206475237527712       -0.3034110000000000
x        0.0212319504223615       -0.5500680329026579       -0.0206439021199571       -0.3034110000000000
x       -0.5495385885155883        0.0001294059221699        0.2406809651374715        0.1979110000000000
x        0.5508633643669327        0.0012173093367664        0.5219025112019153        0.1055000000000000
