6
s                      x[A]                      y[A]                      z[A]                      q[e]
N       -0.0003779811808913        0.8644571568603516       -0.4391843562320968        0.1979110000000000
N        0.0016617878419564        0.5912643589043287       -0.9498207129921445        0.1055000000000000
O       -0.2910427751047319        0.0008779050531552        0.1031009894698333       -0.3034110000000000
O        0.2910427751047319        0.0010651327102665        0.1033475772867742       -0.3034110000000000
N       -0.0000471096806661       -0.8615423196902607       -0.4409760823330245        0.1979110000000000
N       -0.0016053485281772       -0.5910316827585083       -0.9496294697178993        0.1055000000000000

        RMSE         7.116222047E-01 kcal/mol
         MAE         4.840051382E-01 kcal/mol
     max. AE         4.792734394E+00 kcal/mol

Coordinates in bohr
s                   x[bohr]                   y[bohr]                   z[bohr]                      q[e]
local coordinates in angstrom
s                      x[a]                      y[a]                       z[a                      q[e]
x        0.4809638265128342        0.0007142809124616        0.1830493071838646        0.1979110000000000
x       -0.5498297226133673       -0.0031403238999133        0.5506658588501523        0.1055000000000000
x       -0.0388060769428193        0.5499911357411591        0.0452281814452391       -0.3034110000000000
x       -0.0382309160252134       -0.5499911357411591        0.0451208907648777       -0.3034110000000000
x       -0.4746094555217724        0.0000890243943168        0.1818548000114788        0.1979110000000000
x        0.5499124460620806        0.0030336690541617        0.5501027461596095        0.1055000000000000
