6
s                      x[A]                      y[A]                      z[A]                      q[e]
N        0.9218845387316739       -0.5047286040109871        0.0014713250920620        0.1979110000000000
N        0.6507132118249509       -1.0190558845304325       -0.0045366790323918        0.1055000000000000
O        0.0067037004759147        0.0835425254850155       -0.2910474658685001       -0.3034110000000000
O        0.0054214598749921        0.0847740960272413        0.2910474658685001       -0.3034110000000000
N       -0.9261920048136784       -0.4217414129957414       -0.0001058467621575        0.1979110000000000
N       -0.6703553591880547       -0.9510653904552493        0.0014599287165679        0.1055000000000000

        RMSE         7.527699056E-01 kcal/mol
         MAE         5.177730830E-01 kcal/mol
     max. AE         4.922953709E+00 kcal/mol

Coordinates in bohr
s                   x[bohr]                   y[bohr]                   z[bohr]                      q[e]
local coordinates in angstrom
s                      x[a]                      y[a]                       z[a                      q[e]
x        0.4802204578828927       -0.0027804014655112        0.1680275113690485        0.1979110000000000
x       -0.5500000000000000        0.0085730808903275        0.5500000000000000        0.1055000000000000
x       -0.0660971186883067        0.5500000000000000        0.0927624704948267       -0.3034110000000000
x       -0.0663488901022141       -0.5500000000000000        0.0894121847121820       -0.3034110000000000
x       -0.4965386844979385        0.0002000213917442        0.1771098984334887        0.1979110000000000
x        0.5500000000000000       -0.0027588654370044        0.5499990000000000        0.1055000000000000
