6
s                      x[A]                      y[A]                      z[A]                      q[e]
N       -0.0007158924417909        1.0910242313508478       -0.3534976025418589        0.1979110000000000
N        0.0003085037855691        0.8375366849864485       -0.8746570993596618        0.1055000000000000
O       -0.2910923488160345        0.0004972392415484        0.1138022736665976       -0.3034110000000000
O        0.2910923488160345       -0.0004977640960037        0.1137933832746886       -0.3034110000000000
N       -0.0003640937691311       -1.0909428884651233       -0.3532114215462496        0.1979110000000000
N        0.0005783364009364       -0.8357151175264865       -0.8756338359599498        0.1055000000000000

        RMSE         7.486896451E-01 kcal/mol
         MAE         5.103045364E-01 kcal/mol
     max. AE         4.508201846E+00 kcal/mol

Coordinates in bohr
s                   x[bohr]                   y[bohr]                   z[bohr]                      q[e]
local coordinates in angstrom
s                      x[a]                      y[a]                       z[a                      q[e]
x        0.5502873328755413        0.0013528406502701        0.2752032029329712        0.1979110000000000
x       -0.5215899341183103       -0.0005829876633925        0.4998545615308103        0.1055000000000000
x       -0.0140818985764781        0.5500848164785435        0.0121019912967313       -0.3034110000000000
x       -0.0152469687836856       -0.5500848164785435        0.0106260641841800       -0.3034110000000000
x       -0.5506206357540577        0.0006880375076435        0.2747504266335454        0.1979110000000000
x        0.5251574684207299       -0.0010928974061528        0.4982643649891543        0.1055000000000000
