6
s                      x[A]                      y[A]                      z[A]                      q[e]
N       -0.0004318696653757        1.0353682139043014       -0.3016524141590225        0.1979110000000000
N       -0.0006693002729164        0.7620515413255061       -0.8032829137154092        0.1055000000000000
O       -0.2910474658685001        0.0011764349658198        0.1450668799187434       -0.3034110000000000
O        0.2910474658685001       -0.0004962055681237        0.1440478232861881       -0.3034110000000000
N       -0.0005323431254800       -1.0354680299106984       -0.3017270181566870        0.1979110000000000
N        0.0012069638985511       -0.7595516253552251       -0.8045560289179828        0.1055000000000000

        RMSE         6.827641027E-01 kcal/mol
         MAE         4.605116724E-01 kcal/mol
     max. AE         4.252187417E+00 kcal/mol

Coordinates in bohr
s                   x[bohr]                   y[bohr]                   z[bohr]                      q[e]
local coordinates in angstrom
s                      x[a]                      y[a]                       z[a                      q[e]
x        0.5500000000000000        0.0008161153894532        0.3138325780507905        0.1979110000000000
x       -0.5185078167896482        0.0012647942115061        0.4676346052611872        0.1055000000000000
x        0.0561674360705816        0.5500000000000000       -0.0392049131237023       -0.3034110000000000
x        0.0527326254502216       -0.5500000000000000       -0.0405838274843427       -0.3034110000000000
x       -0.5500000000000000        0.0010059827119275        0.3140680669799110        0.1979110000000000
x        0.5232631065006018       -0.0022808312115765        0.4652909038781415        0.1055000000000000
