6
s                      x[A]                      y[A]                      z[A]                      q[e]
N        1.0449676765092886       -0.2320032912079418       -0.0003202925048722        0.1979110000000000
N        0.8085570201252033       -0.7658442145469846       -0.0006988073508848        0.1055000000000000
O       -0.0141774723624018        0.1306315626702600       -0.2910368573373411       -0.3034110000000000
O       -0.0151154834993775        0.1304668939749411        0.2910368573373411       -0.3034110000000000
N       -1.0549506723139312       -0.4256430040906914       -0.0005849399686915        0.1979110000000000
N       -0.7812589917755740       -0.9366770377290056        0.0014850556753695        0.1055000000000000

        RMSE         7.128483829E-01 kcal/mol
         MAE         4.863299763E-01 kcal/mol
     max. AE         4.185653929E+00 kcal/mol

Coordinates in bohr
s                   x[bohr]                   y[bohr]                   z[bohr]                      q[e]
local coordinates in angstrom
s                      x[a]                      y[a]                       z[a                      q[e]
x        0.5537031067524367        0.0006052651142454        0.2896540757938055        0.1979110000000000
x       -0.5327098487514377        0.0013205545076289        0.4820018043137679        0.1055000000000000
x        0.0052373787571014        0.5499799527815163       -0.0358112463841280       -0.3034110000000000
x        0.0039898537970657       -0.5499799527815163       -0.0371083848708622       -0.3034110000000000
x       -0.5565919427926929        0.0011053763406608        0.2655891672893631        0.1979110000000000
x        0.5088456157782275       -0.0028063485075052        0.5204328078616527        0.1055000000000000
