6
s                      x[A]                      y[A]                      z[A]                      q[e]
N        1.0561160741521054       -0.2403464221723595        0.0003817906870426        0.1979110000000000
N        0.8260568347427795       -0.7551493603696010       -0.0025677412686195        0.1055000000000000
O       -0.0056005913804490        0.1460915235383190       -0.2910650515749487       -0.3034110000000000
O       -0.0060944948085541        0.1452006813675625        0.2910650515749487       -0.3034110000000000
N       -1.0624528774369861       -0.3447778337284673       -0.0015289241097860        0.1979110000000000
N       -0.8083275983388652       -0.8502337891607570        0.0030312848851162        0.1055000000000000

        RMSE         7.026924351E-01 kcal/mol
         MAE         4.746976956E-01 kcal/mol
     max. AE         4.259174882E+00 kcal/mol

Coordinates in bohr
s                   x[bohr]                   y[bohr]                   z[bohr]                      q[e]
local coordinates in angstrom
s                      x[a]                      y[a]                       z[a                      q[e]
x        0.5558189331286485       -0.0007214798357609        0.3097214070585323        0.1979110000000000
x       -0.4949168699140500        0.0048523277587265        0.4868425579734321        0.1055000000000000
x        0.0520459383960770        0.5500332321689108       -0.0473552258904419       -0.3034110000000000
x        0.0501273841491638       -0.5500332321689108       -0.0471994262625230       -0.3034110000000000
x       -0.5563472025733063        0.0028892478341049        0.2990929563929967        0.1979110000000000
x        0.4923526720058362       -0.0057282982411095        0.5069457791141758        0.1055000000000000
