6
s                      x[A]                      y[A]                      z[A]                      q[e]
N       -0.0001449866086327        0.9570743830518531       -0.3435897921808060        0.1979110000000000
N        0.0007545445771221        0.7005278196182619       -0.8949442323868738        0.1055000000000000
O       -0.2910474658685001       -0.0002373344185771        0.1339725071027016       -0.3034110000000000
O        0.2910474658685001        0.0001501354725769        0.1337457403352755       -0.3034110000000000
N       -0.0004229145946143       -0.9569650211815557       -0.3434920971793344        0.1979110000000000
N       -0.0005096996028379       -0.7004305717468401       -0.8948573590468709        0.1055000000000000

        RMSE         6.799384394E-01 kcal/mol
         MAE         4.637552855E-01 kcal/mol
     max. AE         3.927514278E+00 kcal/mol

Coordinates in bohr
s                   x[bohr]                   y[bohr]                   z[bohr]                      q[e]
local coordinates in angstrom
s                      x[a]                      y[a]                       z[a                      q[e]
x        0.5500000000000000        0.0002739849821747        0.2160802866743193        0.1979110000000000
x       -0.5500000000000000       -0.0014258826002102        0.5486578491789277        0.1055000000000000
x        0.0178191212979580        0.5500000000000000       -0.0165195445008211       -0.3034110000000000
x        0.0179873450344602       -0.5500000000000000       -0.0156879973795572       -0.3034110000000000
x       -0.5500000000000000        0.0007991927582801        0.2158031705188235        0.1979110000000000
x        0.5500000000000000        0.0009631926556182        0.5484114291407066        0.1055000000000000
