6
s                      x[A]                      y[A]                      z[A]                      q[e]
N        0.9576407611779586       -0.3059864729870136       -0.0007732626690570        0.1979110000000000
N        0.7207010198766024       -0.8698135466599879        0.0005736670320767        0.1055000000000000
O       -0.0129178455590294        0.1126768135023376       -0.2910474658685001       -0.3034110000000000
O       -0.0139668983313975        0.1128301415907433        0.2910474658685001       -0.3034110000000000
N       -0.9603289638113199       -0.4817200830104282       -0.0001211572141299        0.1979110000000000
N       -0.6759813622497972       -1.0151003737882185        0.0006897475329699        0.1055000000000000

        RMSE         7.175734612E-01 kcal/mol
         MAE         4.940686108E-01 kcal/mol
     max. AE         4.250419567E+00 kcal/mol

Coordinates in bohr
s                   x[bohr]                   y[bohr]                   z[bohr]                      q[e]
local coordinates in angstrom
s                      x[a]                      y[a]                       z[a                      q[e]
x        0.5500000000000000        0.0014612546675582        0.1954212020134123        0.1979110000000000
x       -0.5500000000000000       -0.0010840735778293        0.5500000000000000        0.1055000000000000
x       -0.0448803830946593        0.5500000000000000        0.0063692644466294       -0.3034110000000000
x       -0.0459522762570195       -0.5500000000000000        0.0046766340376635       -0.3034110000000000
x       -0.5311114539310305        0.0002289539528289        0.1813802947069681        0.1979110000000000
x        0.5500000000000000       -0.0013034339330232        0.5499990000000000        0.1055000000000000
