6
s                      x[A]                      y[A]                      z[A]                      q[e]
N        0.9270168330872443       -0.4201006701467771       -0.0004990037273504        0.1979110000000000
N        0.6703557307048844       -0.9510657672891193       -0.0019003424294628        0.1055000000000000
O       -0.0033228526857542        0.0832956911210205       -0.2910474658685001       -0.3034110000000000
O       -0.0058438973615755        0.0840745699669417        0.2910474658685001       -0.3034110000000000
N       -0.9180936238302395       -0.5072056174811407        0.0011824427752388        0.1979110000000000
N       -0.6504175269124071       -1.0187258412641473       -0.0002412579350011        0.1055000000000000

        RMSE         7.536754783E-01 kcal/mol
         MAE         5.200036237E-01 kcal/mol
     max. AE         4.899627227E+00 kcal/mol

Coordinates in bohr
s                   x[bohr]                   y[bohr]                   z[bohr]                      q[e]
local coordinates in angstrom
s                      x[a]                      y[a]                       z[a                      q[e]
x        0.4998254454716023        0.0009429803802748        0.1759962622521047        0.1979110000000000
x       -0.5500000000000000        0.0035911267362718        0.5500000000000000        0.1055000000000000
x       -0.0842696449251781        0.5500000000000000        0.0765316708439482       -0.3034110000000000
x       -0.0866288632687758       -0.5500000000000000        0.0721388380924171       -0.3034110000000000
x       -0.4717613518930182       -0.0022344930042277        0.1667336657663173        0.1979110000000000
x        0.5500000000000000        0.0004559114227455        0.5491626186086538        0.1055000000000000
