6
s                      x[A]                      y[A]                      z[A]                      q[e]
N        0.9646887305464488       -0.3924389100244524        0.0001685891677365        0.1979110000000000
N        0.7022872821658692       -0.9291910943647812       -0.0008822426951053        0.1055000000000000
O       -0.0039798191590595        0.0909489040378744       -0.2914154905489455       -0.3034110000000000
O       -0.0049523512893783        0.0918060062390986        0.2914154905489455       -0.3034110000000000
N       -0.9639785928183130       -0.4805927349608824        0.0003389707430651        0.1979110000000000
N       -0.6771917102084030       -0.9954759424113879        0.0000588348128554        0.1055000000000000

        RMSE         7.400035928E-01 kcal/mol
         MAE         5.070443133E-01 kcal/mol
     max. AE         4.571779605E+00 kcal/mol

Coordinates in bohr
s                   x[bohr]                   y[bohr]                   z[bohr]                      q[e]
local coordinates in angstrom
s                      x[a]                      y[a]                       z[a                      q[e]
x        0.5201210546301809       -0.0003185873547409        0.2027114026795971        0.1979110000000000
x       -0.5580964261221197        0.0016671970699349        0.5376221058577357        0.1055000000000000
x       -0.0707618307533266        0.5506954658534511        0.0563662622481189       -0.3034110000000000
x       -0.0708438244887475       -0.5506954658534511        0.0539179469774638       -0.3034110000000000
x       -0.5063822580800661       -0.0006405618689360        0.1983558627593993        0.1979110000000000
x        0.5579826589766981       -0.0001111816829393        0.5262915429866553        0.1055000000000000
