6
s                      x[A]                      y[A]                      z[A]                      q[e]
N       -0.0009964057777170        1.1202468246576722       -0.3237116609574794        0.1979110000000000
N       -0.0006563724145625        0.8864198930317470       -0.8348444073870505        0.1055000000000000
O       -0.2912463614018314       -0.0013769053042952        0.1278468727238515       -0.3034110000000000
O        0.2912463614018314       -0.0035658147980644        0.1279247740400271       -0.3034110000000000
N       -0.0005058274392852       -1.1189127699970141       -0.3122406322249905        0.1979110000000000
N        0.0005225060658193       -0.8964816597622667       -0.8413246340753454        0.1055000000000000

        RMSE         7.466284609E-01 kcal/mol
         MAE         5.047099794E-01 kcal/mol
     max. AE         4.480796941E+00 kcal/mol

Coordinates in bohr
s                   x[bohr]                   y[bohr]                   z[bohr]                      q[e]
local coordinates in angstrom
s                      x[a]                      y[a]                       z[a                      q[e]
x        0.5604047921387973        0.0018829340297088        0.2987430390917325        0.1979110000000000
x       -0.4815670773161855        0.0012403640998286        0.5049159552982019        0.1055000000000000
x        0.0136169296852131        0.5503758580855731       -0.0130189067079698       -0.3034110000000000
x        0.0113181869817254       -0.5503758580855731       -0.0164609387792041       -0.3034110000000000
x       -0.5765180487226189        0.0009558753269907        0.2840251868851738        0.1979110000000000
x        0.4803867199873366       -0.0009873933632889        0.5275013323307576        0.1055000000000000
