6
s                      x[A]                      y[A]                      z[A]                      q[e]
N        0.0003855603034995        0.9750942735999314       -0.4381928607719437        0.1979110000000000
N       -0.0014626353143701        0.7174834480225142       -0.9830426259446590        0.1055000000000000
O       -0.2910226312886894        0.0006744912844830        0.0877798580082787       -0.3034110000000000
O        0.2910226312886894       -0.0002153513369617        0.0883537502727785       -0.3034110000000000
N       -0.0000595904162877       -0.9743952680372460       -0.4388084763735633        0.1979110000000000
N        0.0001869544974385       -0.7176500797781827       -0.9829003420059226        0.1055000000000000

        RMSE         7.567555012E-01 kcal/mol
         MAE         5.228214249E-01 kcal/mol
     max. AE         4.629396829E+00 kcal/mol

Coordinates in bohr
s                   x[bohr]                   y[bohr]                   z[bohr]                      q[e]
local coordinates in angstrom
s                      x[a]                      y[a]                       z[a                      q[e]
x        0.5193383768728381       -0.0007286033784624        0.1737332517241157        0.1979110000000000
x       -0.5544391793446266        0.0027639801655823        0.5533387949508324        0.1055000000000000
x       -0.0720153657880473        0.5499530694457171        0.0732474507899497       -0.3034110000000000
x       -0.0724298661116336       -0.5499530694457171        0.0712899094310160       -0.3034110000000000
x       -0.5175821810680645        0.0001126095664858        0.1736149249063601        0.1979110000000000
x        0.5540265253612233       -0.0003532927980814        0.5533729503003997        0.1055000000000000
