6
s                      x[A]                      y[A]                      z[A]                      q[e]
N        0.0000776944435913        1.1016178052914927       -0.2788453015073075        0.1979110000000000
N       -0.0011943391455515        0.8844419050335095       -0.7712567407011118        0.1055000000000000
O       -0.2910949657259374        0.0016954054002337        0.1480623452922158       -0.3034110000000000
O        0.2910949657259374        0.0008384727627587        0.1471306655818455       -0.3034110000000000
N       -0.0006873635390944       -1.1025013396923313       -0.2794312153186854        0.1979110000000000
N        0.0013617143984625       -0.8814815666216984       -0.7721787845605989        0.1055000000000000

        RMSE         7.310855835E-01 kcal/mol
         MAE         4.927776369E-01 kcal/mol
     max. AE         4.549988094E+00 kcal/mol

Coordinates in bohr
s                   x[bohr]                   y[bohr]                   z[bohr]                      q[e]
local coordinates in angstrom
s                      x[a]                      y[a]                       z[a                      q[e]
x        0.5518183523613516       -0.0001468212198574        0.3231282002725493        0.1979110000000000
x       -0.4498139461184110        0.0022569738860057        0.4992984232667368        0.1055000000000000
x        0.0668656130510499        0.5500897617215550       -0.0408660254342976       -0.3034110000000000
x        0.0645018783088744       -0.5500897617215550       -0.0412333015574404       -0.3034110000000000
x       -0.5518262107416376        0.0012989288375138        0.3251315869329119        0.1979110000000000
x        0.4543723012193368       -0.0025732672741867        0.4956170119949093        0.1055000000000000
