6
s                      x[A]                      y[A]                      z[A]                      q[e]
N        0.8928063439551008       -0.4772394450330183        0.0002598374891190        0.1979110000000000
N        0.6159119510933657       -0.9898875852071635       -0.0011920180355565        0.1055000000000000
O        0.0064010065514087        0.1013289541330012       -0.2910474658685001       -0.3034110000000000
O        0.0057385570436300        0.1018725945573293        0.2910474658685001       -0.3034110000000000
N       -0.8970125408650951       -0.3932387654882997       -0.0005660075297209        0.1979110000000000
N       -0.6366048250902303       -0.9219322940236176        0.0008724927697413        0.1055000000000000

        RMSE         7.201346785E-01 kcal/mol
         MAE         4.926510223E-01 kcal/mol
     max. AE         4.726264035E+00 kcal/mol

Coordinates in bohr
s                   x[bohr]                   y[bohr]                   z[bohr]                      q[e]
local coordinates in angstrom
s                      x[a]                      y[a]                       z[a                      q[e]
x        0.4856818339887388       -0.0004910216915616        0.1762844659183801        0.1979110000000000
x       -0.5500000000000000        0.0022525876238080        0.5500000000000000        0.1055000000000000
x       -0.0348364146293095        0.5500000000000000        0.0571380247131468       -0.3034110000000000
x       -0.0350853370782713       -0.5500000000000000        0.0555378461540016       -0.3034110000000000
x       -0.5023202621557779        0.0010695992161194        0.1853669482379549        0.1979110000000000
x        0.5500000000000000       -0.0016487723812531        0.5499990000000000        0.1055000000000000
