6
s                      x[A]                      y[A]                      z[A]                      q[e]
N        1.1028335100441597       -0.2460567572763331        0.0001977767219371        0.1979110000000000
N        0.9015820367536203       -0.7556822956815429       -0.0029396537530194        0.1055000000000000
O       -0.0064842395710898        0.1406505885731969       -0.2914216766911165       -0.3034110000000000
O       -0.0079864284244463        0.1405740933510341        0.2914216766911165       -0.3034110000000000
N       -1.1143455893821324       -0.3402621006669025       -0.0011422332851254        0.1979110000000000
N       -0.8902273646507367       -0.8611350300362958        0.0019647128067531        0.1055000000000000

        RMSE         7.355775428E-01 kcal/mol
         MAE         4.948980605E-01 kcal/mol
     max. AE         4.482072017E+00 kcal/mol

Coordinates in bohr
s                   x[bohr]                   y[bohr]                   z[bohr]                      q[e]
local coordinates in angstrom
s                      x[a]                      y[a]                       z[a                      q[e]
x        0.5552310671187115       -0.0003737438384519        0.3075749974614155        0.1979110000000000
x       -0.4607185162367387        0.0055551404968810        0.5074568594727680        0.1055000000000000
x        0.0384445696045077        0.5507071559679275       -0.0392194828756516       -0.3034110000000000
x        0.0367901566069122       -0.5507071559679275       -0.0415307977338841       -0.3034110000000000
x       -0.5793010614083869        0.0021585080802691        0.2910616715234937        0.1979110000000000
x        0.4622553089454868       -0.0037127691199430        0.5428391453506265        0.1055000000000000
