6
s                      x[A]                      y[A]                      z[A]                      q[e]
N        0.9050620223622391       -0.5177087508040182        0.0010582806154410        0.1979110000000000
N        0.6418415751484399       -1.0275406028186651       -0.0032895442671292        0.1055000000000000
O        0.0094695669679816        0.0781205755228299       -0.2910637221221926       -0.3034110000000000
O        0.0089058996109074        0.0787351664457127        0.2910637221221926       -0.3034110000000000
N       -0.9073103507469713       -0.4400105299462216       -0.0009335973217496        0.1979110000000000
N       -0.6573118948074169       -0.9591386413607637        0.0025090728073373        0.1055000000000000

        RMSE         7.635958583E-01 kcal/mol
         MAE         5.224702258E-01 kcal/mol
     max. AE         5.350447868E+00 kcal/mol

Coordinates in bohr
s                   x[bohr]                   y[bohr]                   z[bohr]                      q[e]
local coordinates in angstrom
s                      x[a]                      y[a]                       z[a                      q[e]
x        0.4716897163748399       -0.0019998605270644        0.1608019746781792        0.1979110000000000
x       -0.5351171459888064        0.0062163377424440        0.5632728042073722        0.1055000000000000
x       -0.0701849917259096        0.5500307198673049        0.1083408740778395       -0.3034110000000000
x       -0.0702295736728047       -0.5500307198673049        0.1067656013706255       -0.3034110000000000
x       -0.4801298736292665        0.0017642432495677        0.1713338001154625        0.1979110000000000
x        0.5381494312878203       -0.0047414604347011        0.5569198256234813        0.1055000000000000
