6
s                      x[A]                      y[A]                      z[A]                      q[e]
N        1.0512717029084679       -0.3600030703231977       -0.0011381471143715        0.1979110000000000
N        0.7817652244891592       -0.8607828546372872        0.0014800447238260        0.1055000000000000
O        0.0073371401020703        0.1412973565970806       -0.2910373063548458       -0.3034110000000000
O        0.0056857680081309        0.1403491879562822        0.2910373063548458       -0.3034110000000000
N       -1.0466410216130633       -0.2577643775415699        0.0002364778166702        0.1979110000000000
N       -0.7975587481084659       -0.7714179937365945       -0.0004617403408766        0.1055000000000000

        RMSE         7.017718445E-01 kcal/mol
         MAE         4.760531132E-01 kcal/mol
     max. AE         4.325476615E+00 kcal/mol

Coordinates in bohr
s                   x[bohr]                   y[bohr]                   z[bohr]                      q[e]
local coordinates in angstrom
s                      x[a]                      y[a]                       z[a                      q[e]
x        0.5507833431674953        0.0021507863366423        0.2945379553802923        0.1979110000000000
x       -0.5057687963189892       -0.0027968791814601        0.4910841758464812        0.1055000000000000
x        0.0519656409019262        0.5499808013016256       -0.0240228344105162       -0.3034110000000000
x        0.0486132397409165       -0.5499808013016256       -0.0253306106937998       -0.3034110000000000
x       -0.5524783101454886       -0.0004468783082530        0.3057810421087197        0.1979110000000000
x        0.5134367560231112        0.0008725627853323        0.4718258522589167        0.1055000000000000
