6
s                      x[A]                      y[A]                      z[A]                      q[e]
N        0.0004689487192702        0.9372848872133749       -0.4694587345896902        0.1979110000000000
N       -0.0017067004305261        0.6870612209728711       -1.0025594272145086        0.1055000000000000
O       -0.2910164545137350        0.0016477914576151        0.0783565100557670       -0.3034110000000000
O        0.2910164545137350        0.0005443248994987        0.0790788345185947       -0.3034110000000000
N       -0.0001944366490927       -0.9357528184290222       -0.4702320489453842        0.1979110000000000
N        0.0006959236736380       -0.6887523118912507       -1.0023183549037797        0.1055000000000000

        RMSE         7.712439243E-01 kcal/mol
         MAE         5.316270731E-01 kcal/mol
     max. AE         5.166387218E+00 kcal/mol

Coordinates in bohr
s                   x[bohr]                   y[bohr]                   z[bohr]                      q[e]
local coordinates in angstrom
s                      x[a]                      y[a]                       z[a                      q[e]
x        0.4927440485957959       -0.0008861846463049        0.1552261804299633        0.1979110000000000
x       -0.5417534680873359        0.0032251963918952        0.5654572938510682        0.1055000000000000
x       -0.0866290081016814        0.5499413970327147        0.0967165975498574       -0.3034110000000000
x       -0.0872136289253831       -0.5499413970327147        0.0942938518383016       -0.3034110000000000
x       -0.4896335813391488        0.0003674320155369        0.1543082089665404        0.1979110000000000
x        0.5391128611381646       -0.0013151051473983        0.5673139630598598        0.1055000000000000
