6
s                      x[A]                      y[A]                      z[A]                      q[e]
N       -0.0006315419270519        1.0158998178762779       -0.3038762766323751        0.1979110000000000
N        0.0007440945000696        0.7594577944557462       -0.8268076779639317        0.1055000000000000
O       -0.2910636468362108       -0.0002170184938361        0.1463272058007185       -0.3034110000000000
O        0.2910636468362108       -0.0009573761559697        0.1455836558521367       -0.3034110000000000
N       -0.0005874060973355       -1.0156344022967032       -0.3019196812242516        0.1979110000000000
N        0.0005960560362738       -0.7615195919151446       -0.8277812357583006        0.1055000000000000

        RMSE         6.772508455E-01 kcal/mol
         MAE         4.591587162E-01 kcal/mol
     max. AE         4.103523599E+00 kcal/mol

Coordinates in bohr
s                   x[bohr]                   y[bohr]                   z[bohr]                      q[e]
local coordinates in angstrom
s                      x[a]                      y[a]                       z[a                      q[e]
x        0.5557429284299360        0.0011934412788719        0.2803417505065227        0.1979110000000000
x       -0.5222010960173975       -0.0014061348165910        0.5026308441911169        0.1055000000000000
x        0.0519730662899747        0.5500305775974184       -0.0407969486714137       -0.3034110000000000
x        0.0500054199433180       -0.5500305775974184       -0.0410420933745854       -0.3034110000000000
x       -0.5583582218636138        0.0011100366483880        0.2776803993342583        0.1979110000000000
x        0.5212685981027789       -0.0011263826639833        0.5068374798474906        0.1055000000000000
