6
s                      x[A]                      y[A]                      z[A]                      q[e]
N       -0.0006062226228272        1.0315379648693204       -0.2961473705258975        0.1979110000000000
N        0.0001137854735143        0.7715351024457304       -0.8060631295559572        0.1055000000000000
O       -0.2910388788555217        0.0006628370067875        0.1479014594744200       -0.3034110000000000
O        0.2910388788555217       -0.0005107718697284        0.1469357878905072       -0.3034110000000000
N       -0.0008347559771466       -1.0313660360082089       -0.2954381380309020        0.1979110000000000
N        0.0013420268035052       -0.7711351791634267       -0.8077964356393582        0.1055000000000000

        RMSE         6.797912034E-01 kcal/mol
         MAE         4.596432235E-01 kcal/mol
     max. AE         4.186274654E+00 kcal/mol

Coordinates in bohr
s                   x[bohr]                   y[bohr]                   z[bohr]                      q[e]
local coordinates in angstrom
s                      x[a]                      y[a]                       z[a                      q[e]
x        0.5539994709870371        0.0011455947282002        0.3018068738474540        0.1979110000000000
x       -0.5119870714434001       -0.0002150233819975        0.4851348043266626        0.1055000000000000
x        0.0598769679950237        0.5499837728972352       -0.0431891693442594       -0.3034110000000000
x        0.0570875335506571       -0.5499837728972352       -0.0438731171320796       -0.3034110000000000
x       -0.5548784973143484        0.0015774601783960        0.3007442564849043        0.1979110000000000
x        0.5150631473079557       -0.0025360631116484        0.4864903990455787        0.1055000000000000
