8
s                      x[A]                      y[A]                      z[A]                      q[e]
O        0.2614290157635658        1.4905024497596191        0.0000000000000000       -0.5255060957786457
O        0.6379692344127411        2.2205469663166189        0.0000000000000000       -0.0865222374065783
O        0.3639856752471524        2.0793929243710001        0.0000000000000000       -0.1583961986605673
N       -0.0292691833286619        0.0896570106814968        0.0000000000000000        0.9999998995982364
N       -0.2077735344062633       -1.6135851354989665        0.0000000000000000        0.9999995706767661
O       -0.0987341430463766       -1.1226922421814653       -0.1232574698006671       -0.6358076805999309
O       -0.0987341430463766       -1.1226922421814653        0.1232574698006671       -0.6358076805999309
O       -0.2871379029535474       -1.1277670598928016        0.0000000000000000       -0.9579595772293494

        RMSE         1.273715641E+00 kcal/mol
         MAE         7.607113490E-01 kcal/mol
     max. AE         6.972096970E+00 kcal/mol

Coordinates in bohr
s                   x[bohr]                   y[bohr]                   z[bohr]                      q[e]
-        0.4940292410411365        2.8166414193696463        0.0000000000000000       -0.5255060957786457
-        1.2055871295080862        4.1962256150546384        0.0000000000000000       -0.0865222374065783
-        0.6878332398069525        3.9294831342760324        0.0000000000000000       -0.1583961986605673
+       -0.0553107404069871        0.1694271954152761        0.0000000000000000        0.9999998995982364
+       -0.3926350761462267       -3.0492339862028066        0.0000000000000000        0.9999995706767661
-       -0.1865804895894282       -2.1215808608991420       -0.2329228608401498       -0.6358076805999309
-       -0.1865804895894282       -2.1215808608991420        0.2329228608401498       -0.6358076805999309
-       -0.5426119968204929       -2.1311708765101902        0.0000000000000000       -0.9579595772293494
